                                  MODFLOW-2005     
      U.S. GEOLOGICAL SURVEY MODULAR FINITE-DIFFERENCE GROUND-WATER FLOW MODEL
                            VERSION 1.12.00 2/3/2017

 LIST FILE: mf2005Unsteadyflow.list
                         UNIT    2

 OPENING mf2005Unsteadyflow.dis
 FILE TYPE:DIS   UNIT   11   STATUS:OLD    
 FORMAT:FORMATTED              ACCESS:SEQUENTIAL          

 OPENING mf2005Unsteadyflow.bas
 FILE TYPE:BAS6   UNIT   13   STATUS:OLD    
 FORMAT:FORMATTED              ACCESS:SEQUENTIAL          

 OPENING mf2005Unsteadyflow.lpf
 FILE TYPE:LPF   UNIT   15   STATUS:OLD    
 FORMAT:FORMATTED              ACCESS:SEQUENTIAL          

 OPENING mf2005Unsteadyflow.chd
 FILE TYPE:CHD   UNIT   24   STATUS:OLD    
 FORMAT:FORMATTED              ACCESS:SEQUENTIAL          

 OPENING mf2005Unsteadyflow.wel
 FILE TYPE:WEL   UNIT   20   STATUS:OLD    
 FORMAT:FORMATTED              ACCESS:SEQUENTIAL          

 OPENING mf2005Unsteadyflow.riv
 FILE TYPE:RIV   UNIT   18   STATUS:OLD    
 FORMAT:FORMATTED              ACCESS:SEQUENTIAL          

 OPENING mf2005Unsteadyflow.oc
 FILE TYPE:OC   UNIT   14   STATUS:OLD    
 FORMAT:FORMATTED              ACCESS:SEQUENTIAL          

 OPENING mf2005Unsteadyflow.pcg
 FILE TYPE:PCG   UNIT   27   STATUS:OLD    
 FORMAT:FORMATTED              ACCESS:SEQUENTIAL          

 OPENING mf2005Unsteadyflow.cbc
 FILE TYPE:DATA(BINARY)   UNIT    1   STATUS:REPLACE
 FORMAT:UNFORMATTED            ACCESS:STREAM              

 OPENING mf2005Unsteadyflow.hds
 FILE TYPE:DATA(BINARY)   UNIT   51   STATUS:REPLACE
 FORMAT:UNFORMATTED            ACCESS:STREAM              

 OPENING mf2005Unsteadyflow.ddn
 FILE TYPE:DATA(BINARY)   UNIT   52   STATUS:REPLACE
 FORMAT:UNFORMATTED            ACCESS:STREAM              

 BAS -- BASIC PACKAGE, VERSION 7, 5/2/2005 INPUT READ FROM UNIT   13
 
 MODFLOW was compiled using mixed precision
 Precision of REAL variables:           6
 Precision of DOUBLE PRECISION variables:          15

 DISCRETIZATION INPUT DATA READ FROM UNIT   11
 # DIS package for MODFLOW-2005 generated by Flopy 3.7.0.dev0
    1 LAYERS        20 ROWS        15 COLUMNS
    3 STRESS PERIOD(S) IN SIMULATION
 MODEL TIME UNIT IS DAYS
 MODEL LENGTH UNIT IS METERS
  Confining bed flag for each layer:
   0

                     DELR =   50.0000    

                     DELC =   50.0000    

 TOP ELEVATION OF LAYER 1 =   5.00000    

   MODEL LAYER BOTTOM EL. =  -50.0000     FOR LAYER   1


 STRESS PERIOD     LENGTH       TIME STEPS     MULTIPLIER FOR DELT    SS FLAG
 ----------------------------------------------------------------------------
        1         1.000000          1                    1.000         SS
        2         100.0000        100                    1.000         TR
        3         100.0000        100                    1.000         TR

 COMBINED STEADY-STATE AND TRANSIENT SIMULATION



 
 # BAS6 package for MODFLOW-2005 generated by Flopy 3.7.0.dev0                   
 THE FREE FORMAT OPTION HAS BEEN SELECTED



                     BOUNDARY ARRAY FOR LAYER   1
 READING ON UNIT   13 WITH FORMAT: (15I10)             

 AQUIFER HEAD WILL BE SET TO  -999.99     AT ALL NO-FLOW NODES (IBOUND=0).



                       INITIAL HEAD FOR LAYER   1
 READING ON UNIT   13 WITH FORMAT: (15E15.6)           
 # OC package for MODFLOW-2005 generated by Flopy 3.7.0.dev0

 OUTPUT CONTROL IS SPECIFIED ONLY AT TIME STEPS FOR WHICH OUTPUT IS DESIRED
 COMPACT CELL-BY-CELL BUDGET FILES WILL BE WRITTEN
 AUXILIARY DATA WILL BE SAVED IN CELL-BY-CELL BUDGET FILES
 HEAD PRINT FORMAT CODE IS   0    DRAWDOWN PRINT FORMAT CODE IS   0
 HEADS WILL BE SAVED ON UNIT   51    DRAWDOWNS WILL BE SAVED ON UNIT   52

 LPF -- LAYER-PROPERTY FLOW PACKAGE, VERSION 7, 5/2/2005
         INPUT READ FROM UNIT   15
 # LPF package for MODFLOW-2005 generated by Flopy 3.7.0.dev0
 CELL-BY-CELL FLOWS WILL BE SAVED ON UNIT    1
 HEAD AT CELLS THAT CONVERT TO DRY= -1.00000E+30
 No named parameters

   LAYER FLAGS:
 LAYER       LAYTYP        LAYAVG         CHANI        LAYVKA        LAYWET
 ---------------------------------------------------------------------------
    1             1             0     1.000E+00             0             0

   INTERPRETATION OF LAYER FLAGS:
                        INTERBLOCK     HORIZONTAL    DATA IN
         LAYER TYPE   TRANSMISSIVITY   ANISOTROPY   ARRAY VKA   WETTABILITY
 LAYER      (LAYTYP)      (LAYAVG)       (CHANI)      (LAYVKA)      (LAYWET)
 ---------------------------------------------------------------------------
    1   CONVERTIBLE      HARMONIC     1.000E+00    VERTICAL K  NON-WETTABLE

 WETTING CAPABILITY IS NOT ACTIVE IN ANY LAYER



              HYD. COND. ALONG ROWS FOR LAYER   1
 READING ON UNIT   15 WITH FORMAT: (15E15.6)           

      VERTICAL HYD. COND. =   1.00000     FOR LAYER   1

         SPECIFIC STORAGE =  1.000000E-04 FOR LAYER   1

           SPECIFIC YIELD =  0.100000     FOR LAYER   1

 WEL -- WELL PACKAGE, VERSION 7, 5/2/2005 INPUT READ FROM UNIT   20
 # WEL package for MODFLOW-2005 generated by Flopy 3.7.0.dev0
 No named parameters
 MAXIMUM OF      3 ACTIVE WELLS AT ONE TIME


     0 Well parameters

 RIV -- RIVER PACKAGE, VERSION 7, 5/2/2005 INPUT READ FROM UNIT   18
 # RIV package for MODFLOW-2005 generated by Flopy 3.7.0.dev0
 No named parameters
 MAXIMUM OF     15 ACTIVE RIVER REACHES AT ONE TIME


     0 River parameters

 CHD -- TIME-VARIANT SPECIFIED-HEAD OPTION, VERSION 7, 5/2/2005
 INPUT READ FROM UNIT   24
 # CHD package for MODFLOW-2005 generated by Flopy 3.7.0.dev0
 No named parameters
 MAXIMUM OF     15 TIME-VARIANT SPECIFIED-HEAD CELLS AT ONE TIME


     0 TIME-VARIANT SPECIFIED-HEAD PARAMETERS

 PCG -- CONJUGATE-GRADIENT SOLUTION PACKAGE, VERSION 7, 5/2/2005
 # PCG package for MODFLOW-2005 generated by Flopy 3.7.0.dev0
 MAXIMUM OF     50 CALLS OF SOLUTION ROUTINE
 MAXIMUM OF     30 INTERNAL ITERATIONS PER CALL TO SOLUTION ROUTINE
 MATRIX PRECONDITIONING TYPE :    1



                                    SOLUTION BY THE CONJUGATE-GRADIENT METHOD
                                   -------------------------------------------
                    MAXIMUM NUMBER OF CALLS TO PCG ROUTINE =       50
                        MAXIMUM ITERATIONS PER CALL TO PCG =       30
                               MATRIX PRECONDITIONING TYPE =        1
        RELAXATION FACTOR (ONLY USED WITH PRECOND. TYPE 1) =    0.10000E+01
 PARAMETER OF POLYNOMIAL PRECOND. = 2 (2) OR IS CALCULATED :        0
                         HEAD CHANGE CRITERION FOR CLOSURE =    0.10000E-04
                     RESIDUAL CHANGE CRITERION FOR CLOSURE =    0.10000E-04
            PCG HEAD AND RESIDUAL CHANGE PRINTOUT INTERVAL =      999
     PRINTING FROM SOLVER IS LIMITED(1) OR SUPPRESSED (>1) =        3
                            STEADY-STATE DAMPING PARAMETER =    0.10000E+01
                               TRANSIENT DAMPING PARAMETER =    0.10000E+01
1
                            STRESS PERIOD NO.    1, LENGTH =   1.000000    
                            -----------------------------------------------

                              NUMBER OF TIME STEPS =     1

                               MULTIPLIER FOR DELT =     1.000

                            INITIAL TIME STEP SIZE =   1.000000    

 WELL NO.  LAYER   ROW   COL   STRESS RATE         
 --------------------------------------------------
      1      1      4      4      -500.0    
      2      1      6     12      -100.0    
      3      1     19      6       600.0    

      3 WELLS

 REACH NO.  LAYER   ROW   COL     STAGE      CONDUCTANCE     BOTTOM EL.         
 -------------------------------------------------------------------------------
      1      1     15      1       1.000           2500.           0.000    
      2      1     15      2       1.000           2500.           0.000    
      3      1     15      3       1.000           2500.           0.000    
      4      1     15      4       1.000           2500.           0.000    
      5      1     15      5       1.000           2500.           0.000    
      6      1     15      6       1.000           2500.           0.000    
      7      1     15      7       1.000           2500.           0.000    
      8      1     15      8       1.000           2500.           0.000    
      9      1     15      9       1.000           2500.           0.000    
     10      1     15     10       1.000           2500.           0.000    
     11      1     15     11       1.000           2500.           0.000    
     12      1     15     12       1.000           2500.           0.000    
     13      1     15     13       1.000           2500.           0.000    
     14      1     15     14       1.000           2500.           0.000    
     15      1     15     15       1.000           2500.           0.000    

     15 RIVER REACHES

 CHD NO.   LAYER   ROW   COL    START HEAD        END HEAD         
 ------------------------------------------------------------------
      1      1      1      1       3.000           3.000    
      2      1      1      2       3.000           3.000    
      3      1      1      3       3.000           3.000    
      4      1      1      4       3.000           3.000    
      5      1      1      5       3.000           3.000    
      6      1      1      6       3.000           3.000    
      7      1      1      7       3.000           3.000    
      8      1      1      8       3.000           3.000    
      9      1      1      9       3.000           3.000    
     10      1      1     10       3.000           3.000    
     11      1      1     11       3.000           3.000    
     12      1      1     12       3.000           3.000    
     13      1      1     13       3.000           3.000    
     14      1      1     14       3.000           3.000    
     15      1      1     15       3.000           3.000    


     15 TIME-VARIANT SPECIFIED-HEAD CELLS
 
 SOLVING FOR HEAD 

 OUTPUT CONTROL FOR STRESS PERIOD    1   TIME STEP    1
    SAVE HEAD FOR ALL LAYERS
    SAVE DRAWDOWN FOR ALL LAYERS
    SAVE BUDGET
    PRINT HEAD FOR ALL LAYERS
    PRINT BUDGET
 UBDSV2 SAVING "   CONSTANT HEAD" ON UNIT   1 AT TIME STEP  1, STRESS PERIOD   1
 UBDSV1 SAVING "FLOW RIGHT FACE " ON UNIT   1 AT TIME STEP  1, STRESS PERIOD   1
 UBDSV1 SAVING "FLOW FRONT FACE " ON UNIT   1 AT TIME STEP  1, STRESS PERIOD   1
1
              HEAD IN LAYER   1 AT END OF TIME STEP   1 IN STRESS PERIOD    1
  ---------------------------------------------------------------------------

            1           2           3           4           5           6           7           8           9          10
           11          12          13          14          15
 ........................................................................................................................
   1    3.000       3.000       3.000       3.000       3.000       3.000       3.000       3.000       3.000       3.000    
        3.000       3.000       3.000       3.000       3.000    
   2    2.109       2.013       1.846       1.722       1.931       2.196       2.417       2.588       2.680       2.710    
        2.728       2.741       2.751       2.759       2.763    
   3    1.299       1.078      0.6204      6.7310E-02  0.7830       1.423       1.878       2.203       2.376       2.429    
        2.461       2.483       2.504       2.521       2.530    
   4   0.7011      0.3645     -0.5431      -2.987     -0.3244      0.8215       1.459       1.883       2.102       2.167    
        2.202       2.225       2.260       2.289       2.305    
   5   0.4340      0.2070     -0.2547     -0.7941     -1.4695E-02  0.7072       1.247       1.654       1.872       1.933    
        1.955       1.953       2.020       2.070       2.094    
   6   0.3927      0.2814      0.1043      1.4389E-02  0.3391      0.7666       1.163       1.500       1.690       1.738    
        1.729       1.611       1.796       1.875       1.907    
   7   0.4624      0.4208      0.3737      0.3991      0.5853      0.8539       1.136       1.398       1.553       1.598    
        1.614       1.610       1.677       1.727       1.752    
   8   0.5736      0.5654      0.5693      0.6207      0.7473      0.9265       1.126       1.324       1.447       1.490    
        1.517       1.537       1.573       1.604       1.621    
   9   0.6928      0.6974      0.7168      0.7663      0.8557      0.9778       1.118       1.264       1.359       1.397    
        1.426       1.450       1.475       1.495       1.507    
  10   0.8071      0.8145      0.8338      0.8714      0.9311       1.010       1.104       1.207       1.280       1.312    
        1.339       1.362       1.381       1.395       1.403    
  11   0.9137      0.9194      0.9322      0.9543      0.9867       1.029       1.080       1.143       1.205       1.234    
        1.258       1.276       1.291       1.302       1.307    
  12   0.9741      0.9779      0.9857      0.9978       1.014       1.035       1.059       1.087       1.131       1.161    
        1.181       1.195       1.206       1.213       1.217    
  13   0.9905      0.9934      0.9992       1.008       1.019       1.033       1.048       1.063       1.081       1.098    
        1.109       1.118       1.124       1.128       1.130    
  14    1.004       1.006       1.010       1.015       1.022       1.029       1.036       1.042       1.046       1.051    
        1.055       1.057       1.059       1.061       1.061    
  15    1.015       1.017       1.019       1.022       1.025       1.026       1.025       1.022       1.019       1.017    
        1.015       1.013       1.012       1.011       1.011    
  16    1.177       1.188       1.211       1.241       1.271       1.285       1.263       1.223       1.182       1.146    
        1.117       1.096       1.081       1.071       1.066    
  17    1.326       1.349       1.394       1.460       1.533       1.577       1.516       1.425       1.339       1.267    
        1.213       1.172       1.144       1.126       1.117    
  18    1.452       1.486       1.557       1.669       1.822       1.972       1.798       1.621       1.479       1.373    
        1.293       1.236       1.196       1.171       1.159    
  19    1.543       1.586       1.679       1.837       2.110       2.684       2.083       1.779       1.586       1.450    
        1.352       1.282       1.234       1.204       1.189    
  20    1.590       1.637       1.735       1.889       2.094       2.281       2.063       1.826       1.633       1.489    
        1.382       1.306       1.254       1.221       1.205    

 HEAD WILL BE SAVED ON UNIT   51 AT END OF TIME STEP    1, STRESS PERIOD    1

 DRAWDOWN WILL BE SAVED ON UNIT   52 AT END OF TIME STEP    1, STRESS PERIOD    1
1
  VOLUMETRIC BUDGET FOR ENTIRE MODEL AT END OF TIME STEP    1, STRESS PERIOD   1
  ------------------------------------------------------------------------------

     CUMULATIVE VOLUMES      L**3       RATES FOR THIS TIME STEP      L**3/T
     ------------------                 ------------------------

           IN:                                      IN:
           ---                                      ---
             STORAGE =           0.0000               STORAGE =           0.0000
       CONSTANT HEAD =         673.0626         CONSTANT HEAD =         673.0626
               WELLS =         600.0000                 WELLS =         600.0000
       RIVER LEAKAGE =           0.0000         RIVER LEAKAGE =           0.0000

            TOTAL IN =        1273.0625              TOTAL IN =        1273.0625

          OUT:                                     OUT:
          ----                                     ----
             STORAGE =           0.0000               STORAGE =           0.0000
       CONSTANT HEAD =           0.0000         CONSTANT HEAD =           0.0000
               WELLS =         600.0000                 WELLS =         600.0000
       RIVER LEAKAGE =         673.0626         RIVER LEAKAGE =         673.0626

           TOTAL OUT =        1273.0625             TOTAL OUT =        1273.0625

            IN - OUT =           0.0000              IN - OUT =           0.0000

 PERCENT DISCREPANCY =           0.00     PERCENT DISCREPANCY =           0.00






         TIME SUMMARY AT END OF TIME STEP    1 IN STRESS PERIOD    1
                    SECONDS     MINUTES      HOURS       DAYS        YEARS
                    -----------------------------------------------------------
   TIME STEP LENGTH  86400.      1440.0      24.000      1.0000     2.73785E-03
 STRESS PERIOD TIME  86400.      1440.0      24.000      1.0000     2.73785E-03
         TOTAL TIME  86400.      1440.0      24.000      1.0000     2.73785E-03
1
1
                            STRESS PERIOD NO.    2, LENGTH =   100.0000    
                            -----------------------------------------------

                              NUMBER OF TIME STEPS =   100

                               MULTIPLIER FOR DELT =     1.000

                            INITIAL TIME STEP SIZE =   1.000000    

 WELL NO.  LAYER   ROW   COL   STRESS RATE         
 --------------------------------------------------
      1      1      4      4      -200.0    
      2      1      6     12       200.0    
      3      1     19      6      -350.0    

      3 WELLS

 REACH NO.  LAYER   ROW   COL     STAGE      CONDUCTANCE     BOTTOM EL.         
 -------------------------------------------------------------------------------
      1      1     15      1       5.000           2500.           0.000    
      2      1     15      2       5.000           2500.           0.000    
      3      1     15      3       5.000           2500.           0.000    
      4      1     15      4       5.000           2500.           0.000    
      5      1     15      5       5.000           2500.           0.000    
      6      1     15      6       5.000           2500.           0.000    
      7      1     15      7       5.000           2500.           0.000    
      8      1     15      8       5.000           2500.           0.000    
      9      1     15      9       5.000           2500.           0.000    
     10      1     15     10       5.000           2500.           0.000    
     11      1     15     11       5.000           2500.           0.000    
     12      1     15     12       5.000           2500.           0.000    
     13      1     15     13       5.000           2500.           0.000    
     14      1     15     14       5.000           2500.           0.000    
     15      1     15     15       5.000           2500.           0.000    

     15 RIVER REACHES

 CHD NO.   LAYER   ROW   COL    START HEAD        END HEAD         
 ------------------------------------------------------------------
      1      1      1      1       3.000           6.000    
      2      1      1      2       3.000           6.000    
      3      1      1      3       3.000           6.000    
      4      1      1      4       3.000           6.000    
      5      1      1      5       3.000           6.000    
      6      1      1      6       3.000           6.000    
      7      1      1      7       3.000           6.000    
      8      1      1      8       3.000           6.000    
      9      1      1      9       3.000           6.000    
     10      1      1     10       3.000           6.000    
     11      1      1     11       3.000           6.000    
     12      1      1     12       3.000           6.000    
     13      1      1     13       3.000           6.000    
     14      1      1     14       3.000           6.000    
     15      1      1     15       3.000           6.000    


     15 TIME-VARIANT SPECIFIED-HEAD CELLS
 
 SOLVING FOR HEAD 

 OUTPUT CONTROL FOR STRESS PERIOD    2   TIME STEP    1
    SAVE HEAD FOR ALL LAYERS
    SAVE DRAWDOWN FOR ALL LAYERS
    SAVE BUDGET
    PRINT HEAD FOR ALL LAYERS
    PRINT BUDGET
 UBDSV1 SAVING "         STORAGE" ON UNIT   1 AT TIME STEP  1, STRESS PERIOD   2
 UBDSV2 SAVING "   CONSTANT HEAD" ON UNIT   1 AT TIME STEP  1, STRESS PERIOD   2
 UBDSV1 SAVING "FLOW RIGHT FACE " ON UNIT   1 AT TIME STEP  1, STRESS PERIOD   2
 UBDSV1 SAVING "FLOW FRONT FACE " ON UNIT   1 AT TIME STEP  1, STRESS PERIOD   2
1
              HEAD IN LAYER   1 AT END OF TIME STEP   1 IN STRESS PERIOD    2
  ---------------------------------------------------------------------------

            1           2           3           4           5           6           7           8           9          10
           11          12          13          14          15
 ........................................................................................................................
   1    3.030       3.030       3.030       3.030       3.030       3.030       3.030       3.030       3.030       3.030    
        3.030       3.030       3.030       3.030       3.030    
   2    2.113       2.018       1.853       1.736       1.939       2.202       2.422       2.593       2.689       2.719    
        2.738       2.751       2.761       2.769       2.773    
   3    1.301       1.082      0.6396      0.1488      0.8023       1.427       1.879       2.205       2.379       2.433    
        2.467       2.491       2.510       2.525       2.534    
   4   0.7026      0.3744     -0.4617      -2.267     -0.2432      0.8314       1.461       1.884       2.105       2.172    
        2.215       2.247       2.272       2.295       2.308    
   5   0.4346      0.2104     -0.2360     -0.7126      3.9405E-03  0.7105       1.248       1.654       1.876       1.945    
        1.991       2.042       2.056       2.082       2.099    
   6   0.3929      0.2822      0.1076      2.4177E-02  0.3424      0.7674       1.163       1.501       1.695       1.759    
        1.819       2.019       1.885       1.897       1.914    
   7   0.4625      0.4210      0.3742      0.4003      0.5859      0.8541       1.136       1.399       1.557       1.611    
        1.650       1.700       1.713       1.739       1.757    
   8   0.5738      0.5656      0.5695      0.6210      0.7475      0.9267       1.126       1.325       1.450       1.496    
        1.530       1.560       1.586       1.610       1.624    
   9   0.6939      0.6986      0.7179      0.7674      0.8568      0.9789       1.119       1.266       1.363       1.402    
        1.433       1.459       1.482       1.501       1.511    
  10   0.8147      0.8221      0.8415      0.8791      0.9388       1.018       1.112       1.215       1.293       1.326    
        1.354       1.376       1.395       1.409       1.416    
  11   0.9655      0.9712      0.9840       1.006       1.038       1.080       1.131       1.192       1.252       1.279    
        1.302       1.320       1.335       1.345       1.350    
  12    1.205       1.208       1.216       1.228       1.244       1.264       1.285       1.301       1.292       1.308    
        1.325       1.339       1.349       1.356       1.360    
  13    1.504       1.507       1.513       1.522       1.533       1.546       1.559       1.571       1.564       1.575    
        1.586       1.594       1.600       1.604       1.606    
  14    2.293       2.295       2.299       2.305       2.311       2.318       2.327       2.341       2.387       2.401    
        2.406       2.409       2.411       2.413       2.413    
  15    4.271       4.272       4.274       4.276       4.279       4.280       4.279       4.278       4.278       4.277    
        4.275       4.273       4.272       4.272       4.271    
  16    2.459       2.469       2.489       2.514       2.536       2.544       2.528       2.497       2.462       2.429    
        2.402       2.381       2.367       2.357       2.353    
  17    1.823       1.844       1.883       1.934       1.982       1.998       1.966       1.900       1.828       1.764    
        1.712       1.672       1.644       1.627       1.618    
  18    1.643       1.673       1.732       1.812       1.888       1.904       1.865       1.764       1.655       1.560    
        1.486       1.430       1.391       1.367       1.355    
  19    1.617       1.655       1.729       1.831       1.918       1.801       1.890       1.772       1.636       1.519    
        1.427       1.360       1.313       1.283       1.269    
  20    1.625       1.666       1.747       1.857       1.964       1.992       1.934       1.794       1.646       1.518    
        1.418       1.345       1.293       1.261       1.245    

 HEAD WILL BE SAVED ON UNIT   51 AT END OF TIME STEP    1, STRESS PERIOD    2

 DRAWDOWN WILL BE SAVED ON UNIT   52 AT END OF TIME STEP    1, STRESS PERIOD    2
1
  VOLUMETRIC BUDGET FOR ENTIRE MODEL AT END OF TIME STEP    1, STRESS PERIOD   2
  ------------------------------------------------------------------------------

     CUMULATIVE VOLUMES      L**3       RATES FOR THIS TIME STEP      L**3/T
     ------------------                 ------------------------

           IN:                                      IN:
           ---                                      ---
             STORAGE =         490.0226               STORAGE =         490.0226
       CONSTANT HEAD =        1378.4919         CONSTANT HEAD =         705.4294
               WELLS =         800.0000                 WELLS =         200.0000
       RIVER LEAKAGE =       27181.0918         RIVER LEAKAGE =       27181.0918

            TOTAL IN =       29849.6055              TOTAL IN =       28576.5430

          OUT:                                     OUT:
          ----                                     ----
             STORAGE =       28026.5469               STORAGE =       28026.5469
       CONSTANT HEAD =           0.0000         CONSTANT HEAD =           0.0000
               WELLS =        1150.0000                 WELLS =         550.0000
       RIVER LEAKAGE =         673.0626         RIVER LEAKAGE =           0.0000

           TOTAL OUT =       29849.6094             TOTAL OUT =       28576.5469

            IN - OUT =      -3.9062E-03              IN - OUT =      -3.9062E-03

 PERCENT DISCREPANCY =          -0.00     PERCENT DISCREPANCY =          -0.00






         TIME SUMMARY AT END OF TIME STEP    1 IN STRESS PERIOD    2
                    SECONDS     MINUTES      HOURS       DAYS        YEARS
                    -----------------------------------------------------------
   TIME STEP LENGTH  86400.      1440.0      24.000      1.0000     2.73785E-03
 STRESS PERIOD TIME  86400.      1440.0      24.000      1.0000     2.73785E-03
         TOTAL TIME 1.72800E+05  2880.0      48.000      2.0000     5.47570E-03
1
 
 SOLVING FOR HEAD 

 OUTPUT CONTROL FOR STRESS PERIOD    2   TIME STEP    2
    SAVE HEAD FOR ALL LAYERS
    SAVE DRAWDOWN FOR ALL LAYERS
    SAVE BUDGET
    PRINT HEAD FOR ALL LAYERS
    PRINT BUDGET
 UBDSV1 SAVING "         STORAGE" ON UNIT   1 AT TIME STEP  2, STRESS PERIOD   2
 UBDSV2 SAVING "   CONSTANT HEAD" ON UNIT   1 AT TIME STEP  2, STRESS PERIOD   2
 UBDSV1 SAVING "FLOW RIGHT FACE " ON UNIT   1 AT TIME STEP  2, STRESS PERIOD   2
 UBDSV1 SAVING "FLOW FRONT FACE " ON UNIT   1 AT TIME STEP  2, STRESS PERIOD   2
1
              HEAD IN LAYER   1 AT END OF TIME STEP   2 IN STRESS PERIOD    2
  ---------------------------------------------------------------------------

            1           2           3           4           5           6           7           8           9          10
           11          12          13          14          15
 ........................................................................................................................
   1    3.060       3.060       3.060       3.060       3.060       3.060       3.060       3.060       3.060       3.060    
        3.060       3.060       3.060       3.060       3.060    
   2    2.122       2.028       1.869       1.762       1.955       2.212       2.431       2.603       2.703       2.735    
        2.755       2.768       2.778       2.785       2.788    
   3    1.304       1.092      0.6763      0.2536      0.8389       1.438       1.883       2.208       2.386       2.443    
        2.480       2.506       2.524       2.536       2.542    
   4   0.7067      0.3939     -0.3575      -1.813     -0.1393      0.8508       1.465       1.886       2.112       2.185    
        2.236       2.277       2.294       2.307       2.316    
   5   0.4367      0.2188     -0.2008     -0.6084      3.9099E-02  0.7189       1.250       1.657       1.886       1.966    
        2.037       2.121       2.102       2.103       2.110    
   6   0.3936      0.2846      0.1159      4.3267E-02  0.3507      0.7700       1.164       1.504       1.707       1.789    
        1.897       2.191       1.964       1.927       1.928    
   7   0.4628      0.4217      0.3760      0.4037      0.5877      0.8549       1.137       1.401       1.567       1.632    
        1.697       1.779       1.760       1.761       1.769    
   8   0.5746      0.5664      0.5706      0.6223      0.7486      0.9276       1.128       1.328       1.458       1.510    
        1.554       1.593       1.610       1.625       1.635    
   9   0.6981      0.7028      0.7221      0.7716      0.8611      0.9831       1.124       1.272       1.377       1.419    
        1.453       1.482       1.503       1.518       1.527    
  10   0.8371      0.8445      0.8639      0.9015      0.9611       1.040       1.134       1.240       1.330       1.364    
        1.392       1.415       1.433       1.446       1.453    
  11    1.078       1.084       1.097       1.119       1.151       1.192       1.240       1.297       1.354       1.376    
        1.397       1.414       1.428       1.438       1.444    
  12    1.549       1.553       1.561       1.572       1.588       1.605       1.620       1.621       1.551       1.547    
        1.558       1.570       1.580       1.587       1.591    
  13    2.033       2.036       2.042       2.050       2.060       2.072       2.084       2.091       2.078       2.084    
        2.092       2.100       2.105       2.109       2.111    
  14    3.011       3.013       3.017       3.022       3.028       3.035       3.044       3.064       3.132       3.152    
        3.159       3.162       3.164       3.165       3.166    
  15    4.631       4.632       4.634       4.636       4.637       4.638       4.638       4.638       4.641       4.641    
        4.639       4.638       4.637       4.636       4.636    
  16    3.161       3.169       3.184       3.201       3.213       3.215       3.205       3.185       3.159       3.132    
        3.108       3.089       3.075       3.066       3.062    
  17    2.316       2.332       2.360       2.391       2.411       2.408       2.395       2.358       2.306       2.254    
        2.208       2.172       2.145       2.128       2.120    
  18    1.917       1.940       1.980       2.022       2.036       1.991       2.013       1.974       1.903       1.829    
        1.764       1.713       1.676       1.652       1.641    
  19    1.758       1.786       1.834       1.880       1.859       1.589       1.831       1.822       1.742       1.652    
        1.573       1.511       1.466       1.438       1.424    
  20    1.708       1.739       1.793       1.851       1.873       1.823       1.843       1.788       1.692       1.593    
        1.506       1.439       1.390       1.359       1.343    

 HEAD WILL BE SAVED ON UNIT   51 AT END OF TIME STEP    2, STRESS PERIOD    2

 DRAWDOWN WILL BE SAVED ON UNIT   52 AT END OF TIME STEP    2, STRESS PERIOD    2
1
  VOLUMETRIC BUDGET FOR ENTIRE MODEL AT END OF TIME STEP    2, STRESS PERIOD   2
  ------------------------------------------------------------------------------

     CUMULATIVE VOLUMES      L**3       RATES FOR THIS TIME STEP      L**3/T
     ------------------                 ------------------------

           IN:                                      IN:
           ---                                      ---
             STORAGE =         663.1719               STORAGE =         173.1492
       CONSTANT HEAD =        2107.0723         CONSTANT HEAD =         728.5803
               WELLS =        1000.0000                 WELLS =         200.0000
       RIVER LEAKAGE =       40803.0391         RIVER LEAKAGE =       13621.9482

            TOTAL IN =       44573.2812              TOTAL IN =       14723.6777

          OUT:                                     OUT:
          ----                                     ----
             STORAGE =       42200.2266               STORAGE =       14173.6797
       CONSTANT HEAD =           0.0000         CONSTANT HEAD =           0.0000
               WELLS =        1700.0000                 WELLS =         550.0000
       RIVER LEAKAGE =         673.0626         RIVER LEAKAGE =           0.0000

           TOTAL OUT =       44573.2891             TOTAL OUT =       14723.6797

            IN - OUT =      -7.8125E-03              IN - OUT =      -1.9531E-03

 PERCENT DISCREPANCY =          -0.00     PERCENT DISCREPANCY =          -0.00






         TIME SUMMARY AT END OF TIME STEP    2 IN STRESS PERIOD    2
                    SECONDS     MINUTES      HOURS       DAYS        YEARS
                    -----------------------------------------------------------
   TIME STEP LENGTH  86400.      1440.0      24.000      1.0000     2.73785E-03
 STRESS PERIOD TIME 1.72800E+05  2880.0      48.000      2.0000     5.47570E-03
         TOTAL TIME 2.59200E+05  4320.0      72.000      3.0000     8.21355E-03
1
 
 SOLVING FOR HEAD 

 OUTPUT CONTROL FOR STRESS PERIOD    2   TIME STEP    3
    SAVE HEAD FOR ALL LAYERS
    SAVE DRAWDOWN FOR ALL LAYERS
    SAVE BUDGET
    PRINT HEAD FOR ALL LAYERS
    PRINT BUDGET
 UBDSV1 SAVING "         STORAGE" ON UNIT   1 AT TIME STEP  3, STRESS PERIOD   2
 UBDSV2 SAVING "   CONSTANT HEAD" ON UNIT   1 AT TIME STEP  3, STRESS PERIOD   2
 UBDSV1 SAVING "FLOW RIGHT FACE " ON UNIT   1 AT TIME STEP  3, STRESS PERIOD   2
 UBDSV1 SAVING "FLOW FRONT FACE " ON UNIT   1 AT TIME STEP  3, STRESS PERIOD   2
1
              HEAD IN LAYER   1 AT END OF TIME STEP   3 IN STRESS PERIOD    2
  ---------------------------------------------------------------------------

            1           2           3           4           5           6           7           8           9          10
           11          12          13          14          15
 ........................................................................................................................
   1    3.090       3.090       3.090       3.090       3.090       3.090       3.090       3.090       3.090       3.090    
        3.090       3.090       3.090       3.090       3.090    
   2    2.134       2.043       1.893       1.797       1.978       2.227       2.443       2.616       2.721       2.754    
        2.775       2.790       2.799       2.804       2.807    
   3    1.311       1.109      0.7241      0.3589      0.8867       1.454       1.889       2.215       2.398       2.458    
        2.499       2.527       2.542       2.551       2.556    
   4   0.7139      0.4203     -0.2534      -1.510     -3.5441E-02  0.8771       1.471       1.891       2.122       2.202    
        2.263       2.310       2.321       2.326       2.329    
   5   0.4408      0.2324     -0.1553     -0.5045      8.4591E-02  0.7326       1.254       1.663       1.899       1.991    
        2.081       2.181       2.147       2.129       2.127    
   6   0.3952      0.2893      0.1293      6.8937E-02  0.3642      0.7749       1.167       1.510       1.723       1.820    
        1.958       2.284       2.025       1.960       1.948    
   7   0.4637      0.4234      0.3796      0.4095      0.5913      0.8568       1.138       1.407       1.582       1.659    
        1.743       1.842       1.806       1.790       1.787    
   8   0.5766      0.5686      0.5732      0.6252      0.7512      0.9300       1.131       1.334       1.475       1.533    
        1.586       1.632       1.643       1.649       1.654    
   9   0.7072      0.7119      0.7313      0.7809      0.8702      0.9924       1.134       1.287       1.405       1.451    
        1.488       1.519       1.538       1.550       1.556    
  10   0.8772      0.8847      0.9040      0.9416       1.001       1.080       1.174       1.284       1.391       1.427    
        1.455       1.478       1.495       1.507       1.513    
  11    1.235       1.241       1.254       1.276       1.307       1.347       1.393       1.444       1.495       1.511    
        1.528       1.545       1.558       1.568       1.572    
  12    1.906       1.909       1.916       1.928       1.942       1.957       1.966       1.952       1.834       1.810    
        1.815       1.825       1.834       1.841       1.844    
  13    2.463       2.466       2.471       2.479       2.488       2.499       2.507       2.510       2.498       2.499    
        2.505       2.511       2.517       2.520       2.522    
  14    3.416       3.418       3.421       3.426       3.431       3.437       3.447       3.468       3.540       3.561    
        3.569       3.572       3.574       3.576       3.576    
  15    4.722       4.723       4.724       4.725       4.726       4.726       4.727       4.728       4.732       4.732    
        4.731       4.730       4.729       4.728       4.728    
  16    3.544       3.549       3.558       3.567       3.570       3.567       3.563       3.551       3.535       3.515    
        3.495       3.478       3.465       3.457       3.453    
  17    2.697       2.707       2.723       2.736       2.735       2.719       2.719       2.704       2.672       2.633    
        2.595       2.563       2.539       2.523       2.516    
  18    2.193       2.207       2.227       2.237       2.212       2.142       2.189       2.191       2.153       2.100    
        2.047       2.003       1.969       1.947       1.936    
  19    1.936       1.953       1.976       1.978       1.899       1.585       1.872       1.921       1.885       1.823    
        1.759       1.705       1.665       1.638       1.624    
  20    1.834       1.852       1.879       1.892       1.860       1.774       1.830       1.830       1.780       1.710    
        1.640       1.582       1.537       1.508       1.493    

 HEAD WILL BE SAVED ON UNIT   51 AT END OF TIME STEP    3, STRESS PERIOD    2

 DRAWDOWN WILL BE SAVED ON UNIT   52 AT END OF TIME STEP    3, STRESS PERIOD    2
1
  VOLUMETRIC BUDGET FOR ENTIRE MODEL AT END OF TIME STEP    3, STRESS PERIOD   2
  ------------------------------------------------------------------------------

     CUMULATIVE VOLUMES      L**3       RATES FOR THIS TIME STEP      L**3/T
     ------------------                 ------------------------

           IN:                                      IN:
           ---                                      ---
             STORAGE =         683.3799               STORAGE =          20.2081
       CONSTANT HEAD =        2852.1816         CONSTANT HEAD =         745.1093
               WELLS =        1200.0000                 WELLS =         200.0000
       RIVER LEAKAGE =       51024.7148         RIVER LEAKAGE =       10221.6768

            TOTAL IN =       55760.2773              TOTAL IN =       11186.9941

          OUT:                                     OUT:
          ----                                     ----
             STORAGE =       52837.2188               STORAGE =       10636.9941
       CONSTANT HEAD =           0.0000         CONSTANT HEAD =           0.0000
               WELLS =        2250.0000                 WELLS =         550.0000
       RIVER LEAKAGE =         673.0626         RIVER LEAKAGE =           0.0000

           TOTAL OUT =       55760.2812             TOTAL OUT =       11186.9941

            IN - OUT =      -3.9062E-03              IN - OUT =           0.0000

 PERCENT DISCREPANCY =          -0.00     PERCENT DISCREPANCY =           0.00






         TIME SUMMARY AT END OF TIME STEP    3 IN STRESS PERIOD    2
                    SECONDS     MINUTES      HOURS       DAYS        YEARS
                    -----------------------------------------------------------
   TIME STEP LENGTH  86400.      1440.0      24.000      1.0000     2.73785E-03
 STRESS PERIOD TIME 2.59200E+05  4320.0      72.000      3.0000     8.21355E-03
         TOTAL TIME 3.45600E+05  5760.0      96.000      4.0000     1.09514E-02
1
 
 SOLVING FOR HEAD 

 OUTPUT CONTROL FOR STRESS PERIOD    2   TIME STEP    4
    SAVE HEAD FOR ALL LAYERS
    SAVE DRAWDOWN FOR ALL LAYERS
    SAVE BUDGET
    PRINT HEAD FOR ALL LAYERS
    PRINT BUDGET
 UBDSV1 SAVING "         STORAGE" ON UNIT   1 AT TIME STEP  4, STRESS PERIOD   2
 UBDSV2 SAVING "   CONSTANT HEAD" ON UNIT   1 AT TIME STEP  4, STRESS PERIOD   2
 UBDSV1 SAVING "FLOW RIGHT FACE " ON UNIT   1 AT TIME STEP  4, STRESS PERIOD   2
 UBDSV1 SAVING "FLOW FRONT FACE " ON UNIT   1 AT TIME STEP  4, STRESS PERIOD   2
1
              HEAD IN LAYER   1 AT END OF TIME STEP   4 IN STRESS PERIOD    2
  ---------------------------------------------------------------------------

            1           2           3           4           5           6           7           8           9          10
           11          12          13          14          15
 ........................................................................................................................
   1    3.120       3.120       3.120       3.120       3.120       3.120       3.120       3.120       3.120       3.120    
        3.120       3.120       3.120       3.120       3.120    
   2    2.149       2.062       1.921       1.837       2.007       2.246       2.458       2.632       2.741       2.776    
        2.799       2.814       2.822       2.827       2.829    
   3    1.322       1.130      0.7777      0.4568      0.9402       1.475       1.900       2.224       2.413       2.476    
        2.521       2.551       2.565       2.571       2.573    
   4   0.7244      0.4511     -0.1572      -1.296      6.0477E-02  0.9078       1.482       1.899       2.137       2.222    
        2.291       2.342       2.349       2.348       2.347    
   5   0.4473      0.2505     -0.1047     -0.4087      0.1351      0.7508       1.261       1.671       1.916       2.017    
        2.120       2.230       2.187       2.158       2.148    
   6   0.3983      0.2966      0.1472      9.8653E-02  0.3821      0.7825       1.171       1.518       1.742       1.852    
        2.007       2.346       2.075       1.993       1.972    
   7   0.4655      0.4264      0.3854      0.4180      0.5972      0.8602       1.142       1.415       1.602       1.689    
        1.787       1.894       1.851       1.822       1.812    
   8   0.5806      0.5729      0.5781      0.6307      0.7562      0.9347       1.136       1.346       1.499       1.565    
        1.625       1.676       1.683       1.683       1.683    
   9   0.7225      0.7272      0.7468      0.7965      0.8858       1.008       1.151       1.310       1.445       1.496    
        1.537       1.570       1.587       1.596       1.600    
  10   0.9344      0.9418      0.9612      0.9987       1.058       1.137       1.231       1.346       1.472       1.509    
        1.538       1.561       1.577       1.588       1.593    
  11    1.417       1.422       1.435       1.457       1.487       1.526       1.568       1.613       1.654       1.665    
        1.679       1.694       1.706       1.715       1.719    
  12    2.229       2.232       2.239       2.249       2.262       2.274       2.278       2.252       2.102       2.062    
        2.061       2.069       2.077       2.083       2.086    
  13    2.799       2.801       2.806       2.813       2.822       2.830       2.835       2.834       2.822       2.818    
        2.821       2.826       2.831       2.834       2.836    
  14    3.674       3.675       3.678       3.682       3.686       3.692       3.700       3.720       3.789       3.809    
        3.816       3.819       3.821       3.822       3.823    
  15    4.769       4.769       4.770       4.770       4.770       4.771       4.771       4.773       4.777       4.778    
        4.777       4.776       4.776       4.775       4.775    
  16    3.776       3.779       3.782       3.784       3.780       3.774       3.773       3.769       3.760       3.746    
        3.731       3.717       3.706       3.698       3.694    
  17    2.981       2.985       2.990       2.988       2.972       2.950       2.957       2.957       2.941       2.915    
        2.886       2.860       2.839       2.824       2.817    
  18    2.440       2.446       2.449       2.436       2.386       2.304       2.364       2.390       2.378       2.344    
        2.304       2.267       2.238       2.218       2.208    
  19    2.126       2.132       2.133       2.105       1.994       1.662       1.967       2.049       2.045       2.008    
        1.960       1.916       1.880       1.856       1.844    
  20    1.986       1.993       1.997       1.977       1.910       1.807       1.880       1.916       1.901       1.857    
        1.805       1.757       1.718       1.692       1.678    

 HEAD WILL BE SAVED ON UNIT   51 AT END OF TIME STEP    4, STRESS PERIOD    2

 DRAWDOWN WILL BE SAVED ON UNIT   52 AT END OF TIME STEP    4, STRESS PERIOD    2
1
  VOLUMETRIC BUDGET FOR ENTIRE MODEL AT END OF TIME STEP    4, STRESS PERIOD   2
  ------------------------------------------------------------------------------

     CUMULATIVE VOLUMES      L**3       RATES FOR THIS TIME STEP      L**3/T
     ------------------                 ------------------------

           IN:                                      IN:
           ---                                      ---
             STORAGE =         683.3799               STORAGE =           0.0000
       CONSTANT HEAD =        3608.9866         CONSTANT HEAD =         756.8050
               WELLS =        1400.0000                 WELLS =         200.0000
       RIVER LEAKAGE =       59530.5352         RIVER LEAKAGE =        8505.8213

            TOTAL IN =       65222.9023              TOTAL IN =        9462.6260

          OUT:                                     OUT:
          ----                                     ----
             STORAGE =       61749.8438               STORAGE =        8912.6250
       CONSTANT HEAD =           0.0000         CONSTANT HEAD =           0.0000
               WELLS =        2800.0000                 WELLS =         550.0000
       RIVER LEAKAGE =         673.0626         RIVER LEAKAGE =           0.0000

           TOTAL OUT =       65222.9062             TOTAL OUT =        9462.6250

            IN - OUT =      -3.9062E-03              IN - OUT =       9.7656E-04

 PERCENT DISCREPANCY =          -0.00     PERCENT DISCREPANCY =           0.00






         TIME SUMMARY AT END OF TIME STEP    4 IN STRESS PERIOD    2
                    SECONDS     MINUTES      HOURS       DAYS        YEARS
                    -----------------------------------------------------------
   TIME STEP LENGTH  86400.      1440.0      24.000      1.0000     2.73785E-03
 STRESS PERIOD TIME 3.45600E+05  5760.0      96.000      4.0000     1.09514E-02
         TOTAL TIME 4.32000E+05  7200.0      120.00      5.0000     1.36893E-02
1
 
 SOLVING FOR HEAD 

 OUTPUT CONTROL FOR STRESS PERIOD    2   TIME STEP    5
    SAVE HEAD FOR ALL LAYERS
    SAVE DRAWDOWN FOR ALL LAYERS
    SAVE BUDGET
    PRINT HEAD FOR ALL LAYERS
    PRINT BUDGET
 UBDSV1 SAVING "         STORAGE" ON UNIT   1 AT TIME STEP  5, STRESS PERIOD   2
 UBDSV2 SAVING "   CONSTANT HEAD" ON UNIT   1 AT TIME STEP  5, STRESS PERIOD   2
 UBDSV1 SAVING "FLOW RIGHT FACE " ON UNIT   1 AT TIME STEP  5, STRESS PERIOD   2
 UBDSV1 SAVING "FLOW FRONT FACE " ON UNIT   1 AT TIME STEP  5, STRESS PERIOD   2
1
              HEAD IN LAYER   1 AT END OF TIME STEP   5 IN STRESS PERIOD    2
  ---------------------------------------------------------------------------

            1           2           3           4           5           6           7           8           9          10
           11          12          13          14          15
 ........................................................................................................................
   1    3.150       3.150       3.150       3.150       3.150       3.150       3.150       3.150       3.150       3.150    
        3.150       3.150       3.150       3.150       3.150    
   2    2.167       2.085       1.954       1.879       2.040       2.268       2.476       2.650       2.764       2.800    
        2.824       2.840       2.848       2.852       2.853    
   3    1.335       1.156      0.8334      0.5455      0.9958       1.501       1.913       2.236       2.431       2.497    
        2.545       2.577       2.590       2.593       2.594    
   4   0.7380      0.4846     -7.0526E-02  -1.136      0.1468      0.9411       1.495       1.910       2.154       2.245    
        2.319       2.374       2.379       2.372       2.369    
   5   0.4564      0.2722     -5.2688E-02 -0.3229      0.1870      0.7727       1.271       1.681       1.935       2.044    
        2.157       2.271       2.224       2.187       2.172    
   6   0.4029      0.3065      0.1684      0.1306      0.4034      0.7929       1.178       1.529       1.764       1.883    
        2.049       2.395       2.118       2.027       2.000    
   7   0.4686      0.4313      0.3937      0.4290      0.6056      0.8657       1.148       1.427       1.626       1.722    
        1.829       1.942       1.894       1.858       1.843    
   8   0.5871      0.5799      0.5860      0.6393      0.7642      0.9424       1.146       1.362       1.530       1.603    
        1.671       1.724       1.729       1.724       1.721    
   9   0.7447      0.7496      0.7694      0.8191      0.9083       1.031       1.176       1.343       1.496       1.553    
        1.598       1.632       1.648       1.654       1.657    
  10    1.006       1.013       1.033       1.070       1.129       1.208       1.303       1.424       1.566       1.606    
        1.635       1.658       1.673       1.682       1.687    
  11    1.606       1.611       1.624       1.645       1.675       1.711       1.751       1.789       1.818       1.824    
        1.835       1.849       1.860       1.868       1.872    
  12    2.507       2.510       2.517       2.526       2.537       2.547       2.545       2.511       2.340       2.289    
        2.283       2.288       2.295       2.300       2.303    
  13    3.062       3.065       3.069       3.075       3.082       3.089       3.091       3.086       3.072       3.064    
        3.064       3.067       3.071       3.074       3.076    
  14    3.855       3.856       3.858       3.861       3.865       3.869       3.876       3.893       3.956       3.974    
        3.979       3.982       3.984       3.985       3.985    
  15    4.800       4.800       4.800       4.800       4.800       4.800       4.800       4.802       4.807       4.808    
        4.807       4.807       4.806       4.805       4.805    
  16    3.932       3.932       3.931       3.927       3.918       3.910       3.911       3.913       3.910       3.902    
        3.891       3.880       3.871       3.864       3.861    
  17    3.196       3.196       3.192       3.178       3.152       3.126       3.138       3.148       3.145       3.130    
        3.109       3.089       3.071       3.059       3.053    
  18    2.654       2.653       2.643       2.612       2.547       2.459       2.526       2.569       2.575       2.557    
        2.530       2.501       2.477       2.459       2.450    
  19    2.313       2.310       2.295       2.245       2.114       1.774       2.088       2.191       2.211       2.194    
        2.161       2.127       2.097       2.077       2.066    
  20    2.152       2.149       2.134       2.091       2.002       1.890       1.974       2.032       2.043       2.022    
        1.986       1.948       1.916       1.894       1.882    

 HEAD WILL BE SAVED ON UNIT   51 AT END OF TIME STEP    5, STRESS PERIOD    2

 DRAWDOWN WILL BE SAVED ON UNIT   52 AT END OF TIME STEP    5, STRESS PERIOD    2
1
  VOLUMETRIC BUDGET FOR ENTIRE MODEL AT END OF TIME STEP    5, STRESS PERIOD   2
  ------------------------------------------------------------------------------

     CUMULATIVE VOLUMES      L**3       RATES FOR THIS TIME STEP      L**3/T
     ------------------                 ------------------------

           IN:                                      IN:
           ---                                      ---
             STORAGE =         683.3799               STORAGE =           0.0000
       CONSTANT HEAD =        4373.9707         CONSTANT HEAD =         764.9843
               WELLS =        1600.0000                 WELLS =         200.0000
       RIVER LEAKAGE =       66915.1875         RIVER LEAKAGE =        7384.6514

            TOTAL IN =       73572.5391              TOTAL IN =        8349.6357

          OUT:                                     OUT:
          ----                                     ----
             STORAGE =       69549.4844               STORAGE =        7799.6372
       CONSTANT HEAD =           0.0000         CONSTANT HEAD =           0.0000
               WELLS =        3350.0000                 WELLS =         550.0000
       RIVER LEAKAGE =         673.0626         RIVER LEAKAGE =           0.0000

           TOTAL OUT =       73572.5469             TOTAL OUT =        8349.6367

            IN - OUT =      -7.8125E-03              IN - OUT =      -9.7656E-04

 PERCENT DISCREPANCY =          -0.00     PERCENT DISCREPANCY =          -0.00






         TIME SUMMARY AT END OF TIME STEP    5 IN STRESS PERIOD    2
                    SECONDS     MINUTES      HOURS       DAYS        YEARS
                    -----------------------------------------------------------
   TIME STEP LENGTH  86400.      1440.0      24.000      1.0000     2.73785E-03
 STRESS PERIOD TIME 4.32000E+05  7200.0      120.00      5.0000     1.36893E-02
         TOTAL TIME 5.18400E+05  8640.0      144.00      6.0000     1.64271E-02
1
 
 SOLVING FOR HEAD 

 OUTPUT CONTROL FOR STRESS PERIOD    2   TIME STEP    6
    SAVE HEAD FOR ALL LAYERS
    SAVE DRAWDOWN FOR ALL LAYERS
    SAVE BUDGET
    PRINT HEAD FOR ALL LAYERS
    PRINT BUDGET
 UBDSV1 SAVING "         STORAGE" ON UNIT   1 AT TIME STEP  6, STRESS PERIOD   2
 UBDSV2 SAVING "   CONSTANT HEAD" ON UNIT   1 AT TIME STEP  6, STRESS PERIOD   2
 UBDSV1 SAVING "FLOW RIGHT FACE " ON UNIT   1 AT TIME STEP  6, STRESS PERIOD   2
 UBDSV1 SAVING "FLOW FRONT FACE " ON UNIT   1 AT TIME STEP  6, STRESS PERIOD   2
1
              HEAD IN LAYER   1 AT END OF TIME STEP   6 IN STRESS PERIOD    2
  ---------------------------------------------------------------------------

            1           2           3           4           5           6           7           8           9          10
           11          12          13          14          15
 ........................................................................................................................
   1    3.180       3.180       3.180       3.180       3.180       3.180       3.180       3.180       3.180       3.180    
        3.180       3.180       3.180       3.180       3.180    
   2    2.187       2.110       1.989       1.923       2.075       2.294       2.496       2.670       2.787       2.825    
        2.851       2.867       2.875       2.878       2.879    
   3    1.352       1.185      0.8889      0.6255       1.051       1.530       1.929       2.251       2.451       2.520    
        2.571       2.604       2.616       2.618       2.618    
   4   0.7545      0.5196      7.0369E-03  -1.012      0.2241      0.9758       1.510       1.924       2.174       2.269    
        2.348       2.405       2.408       2.399       2.393    
   5   0.4680      0.2965     -1.3668E-03 -0.2464      0.2382      0.7971       1.283       1.694       1.957       2.072    
        2.191       2.308       2.259       2.218       2.200    
   6   0.4094      0.3189      0.1921      0.1636      0.4272      0.8059       1.187       1.543       1.788       1.914    
        2.089       2.438       2.159       2.062       2.031    
   7   0.4735      0.4382      0.4044      0.4426      0.6166      0.8737       1.156       1.443       1.655       1.758    
        1.872       1.988       1.939       1.897       1.879    
   8   0.5968      0.5902      0.5974      0.6514      0.7759      0.9537       1.159       1.385       1.569       1.649    
        1.721       1.777       1.781       1.772       1.767    
   9   0.7738      0.7789      0.7989      0.8489      0.9380       1.061       1.208       1.386       1.557       1.619    
        1.668       1.703       1.718       1.722       1.723    
  10    1.088       1.096       1.115       1.152       1.211       1.289       1.385       1.513       1.668       1.710    
        1.740       1.763       1.777       1.785       1.789    
  11    1.792       1.797       1.809       1.830       1.858       1.893       1.929       1.961       1.978       1.980    
        1.989       2.001       2.011       2.018       2.021    
  12    2.743       2.746       2.752       2.760       2.770       2.776       2.771       2.730       2.548       2.488    
        2.477       2.480       2.486       2.491       2.493    
  13    3.273       3.275       3.279       3.284       3.290       3.294       3.293       3.285       3.269       3.256    
        3.253       3.255       3.258       3.260       3.262    
  14    3.991       3.992       3.994       3.996       3.999       4.002       4.007       4.021       4.078       4.092    
        4.097       4.098       4.100       4.101       4.101    
  15    4.823       4.823       4.822       4.822       4.821       4.821       4.821       4.823       4.828       4.829    
        4.829       4.828       4.828       4.827       4.827    
  16    4.045       4.043       4.039       4.031       4.019       4.009       4.012       4.017       4.019       4.016    
        4.009       4.000       3.993       3.988       3.985    
  17    3.364       3.360       3.350       3.328       3.295       3.266       3.281       3.300       3.306       3.300    
        3.287       3.272       3.258       3.248       3.243    
  18    2.838       2.832       2.812       2.770       2.695       2.602       2.674       2.728       2.748       2.744    
        2.727       2.707       2.687       2.673       2.666    
  19    2.490       2.481       2.453       2.389       2.245       1.901       2.220       2.338       2.375       2.374    
        2.355       2.330       2.307       2.290       2.281    
  20    2.320       2.310       2.281       2.221       2.119       2.002       2.092       2.166       2.196       2.193    
        2.171       2.144       2.119       2.100       2.091    

 HEAD WILL BE SAVED ON UNIT   51 AT END OF TIME STEP    6, STRESS PERIOD    2

 DRAWDOWN WILL BE SAVED ON UNIT   52 AT END OF TIME STEP    6, STRESS PERIOD    2
1
  VOLUMETRIC BUDGET FOR ENTIRE MODEL AT END OF TIME STEP    6, STRESS PERIOD   2
  ------------------------------------------------------------------------------

     CUMULATIVE VOLUMES      L**3       RATES FOR THIS TIME STEP      L**3/T
     ------------------                 ------------------------

           IN:                                      IN:
           ---                                      ---
             STORAGE =         683.3799               STORAGE =           0.0000
       CONSTANT HEAD =        5144.5859         CONSTANT HEAD =         770.6152
               WELLS =        1800.0000                 WELLS =         200.0000
       RIVER LEAKAGE =       73486.7578         RIVER LEAKAGE =        6571.5737

            TOTAL IN =       81114.7266              TOTAL IN =        7542.1890

          OUT:                                     OUT:
          ----                                     ----
             STORAGE =       76541.6719               STORAGE =        6992.1890
       CONSTANT HEAD =           0.0000         CONSTANT HEAD =           0.0000
               WELLS =        3900.0000                 WELLS =         550.0000
       RIVER LEAKAGE =         673.0626         RIVER LEAKAGE =           0.0000

           TOTAL OUT =       81114.7344             TOTAL OUT =        7542.1890

            IN - OUT =      -7.8125E-03              IN - OUT =           0.0000

 PERCENT DISCREPANCY =          -0.00     PERCENT DISCREPANCY =           0.00






         TIME SUMMARY AT END OF TIME STEP    6 IN STRESS PERIOD    2
                    SECONDS     MINUTES      HOURS       DAYS        YEARS
                    -----------------------------------------------------------
   TIME STEP LENGTH  86400.      1440.0      24.000      1.0000     2.73785E-03
 STRESS PERIOD TIME 5.18400E+05  8640.0      144.00      6.0000     1.64271E-02
         TOTAL TIME 6.04800E+05  10080.      168.00      7.0000     1.91650E-02
1
 
 SOLVING FOR HEAD 

 OUTPUT CONTROL FOR STRESS PERIOD    2   TIME STEP    7
    SAVE HEAD FOR ALL LAYERS
    SAVE DRAWDOWN FOR ALL LAYERS
    SAVE BUDGET
    PRINT HEAD FOR ALL LAYERS
    PRINT BUDGET
 UBDSV1 SAVING "         STORAGE" ON UNIT   1 AT TIME STEP  7, STRESS PERIOD   2
 UBDSV2 SAVING "   CONSTANT HEAD" ON UNIT   1 AT TIME STEP  7, STRESS PERIOD   2
 UBDSV1 SAVING "FLOW RIGHT FACE " ON UNIT   1 AT TIME STEP  7, STRESS PERIOD   2
 UBDSV1 SAVING "FLOW FRONT FACE " ON UNIT   1 AT TIME STEP  7, STRESS PERIOD   2
1
              HEAD IN LAYER   1 AT END OF TIME STEP   7 IN STRESS PERIOD    2
  ---------------------------------------------------------------------------

            1           2           3           4           5           6           7           8           9          10
           11          12          13          14          15
 ........................................................................................................................
   1    3.210       3.210       3.210       3.210       3.210       3.210       3.210       3.210       3.210       3.210    
        3.210       3.210       3.210       3.210       3.210    
   2    2.209       2.137       2.026       1.967       2.112       2.321       2.519       2.692       2.812       2.851    
        2.878       2.895       2.903       2.906       2.906    
   3    1.372       1.217      0.9430      0.6978       1.105       1.562       1.948       2.269       2.473       2.545    
        2.598       2.632       2.644       2.645       2.644    
   4   0.7734      0.5552      7.6767E-02 -0.9109      0.2935       1.011       1.529       1.939       2.195       2.294    
        2.377       2.436       2.438       2.427       2.419    
   5   0.4820      0.3226      4.8224E-02 -0.1779      0.2878      0.8235       1.298       1.710       1.980       2.100    
        2.224       2.344       2.294       2.250       2.229    
   6   0.4179      0.3334      0.2176      0.1969      0.4529      0.8214       1.198       1.559       1.815       1.947    
        2.127       2.479       2.198       2.099       2.065    
   7   0.4804      0.4475      0.4178      0.4586      0.6303      0.8843       1.167       1.462       1.687       1.797    
        1.916       2.035       1.985       1.940       1.920    
   8   0.6099      0.6042      0.6126      0.6675      0.7914      0.9691       1.177       1.413       1.613       1.699    
        1.776       1.834       1.837       1.827       1.820    
   9   0.8095      0.8148      0.8352      0.8853      0.9744       1.098       1.248       1.436       1.625       1.692    
        1.744       1.780       1.794       1.797       1.797    
  10    1.178       1.185       1.204       1.241       1.300       1.378       1.475       1.608       1.774       1.817    
        1.849       1.871       1.885       1.892       1.894    
  11    1.968       1.973       1.985       2.005       2.033       2.066       2.099       2.125       2.129       2.127    
        2.134       2.145       2.154       2.160       2.163    
  12    2.942       2.944       2.950       2.957       2.965       2.970       2.961       2.916       2.726       2.661    
        2.647       2.648       2.652       2.656       2.658    
  13    3.444       3.445       3.449       3.453       3.458       3.460       3.457       3.445       3.427       3.409    
        3.404       3.404       3.406       3.409       3.410    
  14    4.098       4.098       4.100       4.102       4.104       4.106       4.109       4.120       4.171       4.182    
        4.185       4.186       4.187       4.188       4.188    
  15    4.840       4.840       4.840       4.839       4.838       4.837       4.838       4.840       4.844       4.845    
        4.845       4.845       4.844       4.844       4.844    
  16    4.133       4.130       4.123       4.111       4.097       4.087       4.090       4.098       4.104       4.104    
        4.101       4.095       4.090       4.086       4.083    
  17    3.502       3.495       3.479       3.452       3.414       3.384       3.401       3.425       3.439       3.441    
        3.434       3.424       3.414       3.406       3.402    
  18    2.999       2.988       2.962       2.911       2.829       2.735       2.810       2.872       2.903       2.910    
        2.902       2.889       2.874       2.863       2.857    
  19    2.656       2.642       2.605       2.530       2.379       2.033       2.356       2.483       2.534       2.546    
        2.538       2.522       2.505       2.491       2.484    
  20    2.484       2.468       2.430       2.359       2.248       2.127       2.222       2.307       2.352       2.363    
        2.355       2.337       2.319       2.304       2.296    

 HEAD WILL BE SAVED ON UNIT   51 AT END OF TIME STEP    7, STRESS PERIOD    2

 DRAWDOWN WILL BE SAVED ON UNIT   52 AT END OF TIME STEP    7, STRESS PERIOD    2
1
  VOLUMETRIC BUDGET FOR ENTIRE MODEL AT END OF TIME STEP    7, STRESS PERIOD   2
  ------------------------------------------------------------------------------

     CUMULATIVE VOLUMES      L**3       RATES FOR THIS TIME STEP      L**3/T
     ------------------                 ------------------------

           IN:                                      IN:
           ---                                      ---
             STORAGE =         683.3799               STORAGE =           0.0000
       CONSTANT HEAD =        5918.9805         CONSTANT HEAD =         774.3945
               WELLS =        2000.0000                 WELLS =         200.0000
       RIVER LEAKAGE =       79430.2500         RIVER LEAKAGE =        5943.4888

            TOTAL IN =       88032.6094              TOTAL IN =        6917.8833

          OUT:                                     OUT:
          ----                                     ----
             STORAGE =       82909.5547               STORAGE =        6367.8833
       CONSTANT HEAD =           0.0000         CONSTANT HEAD =           0.0000
               WELLS =        4450.0000                 WELLS =         550.0000
       RIVER LEAKAGE =         673.0626         RIVER LEAKAGE =           0.0000

           TOTAL OUT =       88032.6172             TOTAL OUT =        6917.8833

            IN - OUT =      -7.8125E-03              IN - OUT =           0.0000

 PERCENT DISCREPANCY =          -0.00     PERCENT DISCREPANCY =           0.00






         TIME SUMMARY AT END OF TIME STEP    7 IN STRESS PERIOD    2
                    SECONDS     MINUTES      HOURS       DAYS        YEARS
                    -----------------------------------------------------------
   TIME STEP LENGTH  86400.      1440.0      24.000      1.0000     2.73785E-03
 STRESS PERIOD TIME 6.04800E+05  10080.      168.00      7.0000     1.91650E-02
         TOTAL TIME 6.91200E+05  11520.      192.00      8.0000     2.19028E-02
1
 
 SOLVING FOR HEAD 

 OUTPUT CONTROL FOR STRESS PERIOD    2   TIME STEP    8
    SAVE HEAD FOR ALL LAYERS
    SAVE DRAWDOWN FOR ALL LAYERS
    SAVE BUDGET
    PRINT HEAD FOR ALL LAYERS
    PRINT BUDGET
 UBDSV1 SAVING "         STORAGE" ON UNIT   1 AT TIME STEP  8, STRESS PERIOD   2
 UBDSV2 SAVING "   CONSTANT HEAD" ON UNIT   1 AT TIME STEP  8, STRESS PERIOD   2
 UBDSV1 SAVING "FLOW RIGHT FACE " ON UNIT   1 AT TIME STEP  8, STRESS PERIOD   2
 UBDSV1 SAVING "FLOW FRONT FACE " ON UNIT   1 AT TIME STEP  8, STRESS PERIOD   2
1
              HEAD IN LAYER   1 AT END OF TIME STEP   8 IN STRESS PERIOD    2
  ---------------------------------------------------------------------------

            1           2           3           4           5           6           7           8           9          10
           11          12          13          14          15
 ........................................................................................................................
   1    3.240       3.240       3.240       3.240       3.240       3.240       3.240       3.240       3.240       3.240    
        3.240       3.240       3.240       3.240       3.240    
   2    2.234       2.167       2.064       2.010       2.150       2.350       2.543       2.716       2.838       2.879    
        2.906       2.924       2.932       2.934       2.934    
   3    1.394       1.250      0.9952      0.7637       1.157       1.594       1.970       2.288       2.496       2.570    
        2.625       2.661       2.673       2.673       2.671    
   4   0.7946      0.5911      0.1400     -0.8257      0.3565       1.047       1.549       1.958       2.219       2.321    
        2.406       2.467       2.469       2.457       2.448    
   5   0.4981      0.3501      9.5668E-02 -0.1162      0.3352      0.8513       1.315       1.728       2.005       2.129    
        2.257       2.379       2.329       2.283       2.261    
   6   0.4285      0.3500      0.2443      0.2303      0.4800      0.8391       1.212       1.578       1.843       1.981    
        2.165       2.519       2.239       2.137       2.101    
   7   0.4897      0.4593      0.4336      0.4770      0.6467      0.8978       1.182       1.485       1.723       1.838    
        1.962       2.083       2.033       1.987       1.965    
   8   0.6267      0.6219      0.6317      0.6875      0.8110      0.9887       1.200       1.447       1.663       1.754    
        1.835       1.895       1.898       1.886       1.878    
   9   0.8510      0.8565      0.8773      0.9277       1.017       1.141       1.295       1.493       1.698       1.769    
        1.823       1.861       1.875       1.877       1.876    
  10    1.271       1.279       1.298       1.335       1.393       1.471       1.570       1.708       1.880       1.925    
        1.957       1.979       1.992       1.998       2.000    
  11    2.132       2.137       2.149       2.168       2.194       2.226       2.257       2.278       2.270       2.265    
        2.271       2.280       2.288       2.293       2.296    
  12    3.110       3.112       3.117       3.124       3.131       3.133       3.122       3.073       2.881       2.812    
        2.795       2.794       2.797       2.801       2.802    
  13    3.585       3.586       3.589       3.593       3.596       3.597       3.592       3.577       3.556       3.535    
        3.528       3.527       3.528       3.530       3.531    
  14    4.184       4.184       4.186       4.187       4.188       4.189       4.191       4.200       4.245       4.254    
        4.255       4.256       4.256       4.257       4.257    
  15    4.855       4.854       4.853       4.852       4.851       4.850       4.851       4.853       4.857       4.858    
        4.858       4.858       4.858       4.858       4.858    
  16    4.204       4.200       4.191       4.177       4.161       4.150       4.155       4.165       4.174       4.178    
        4.177       4.174       4.170       4.167       4.165    
  17    3.617       3.608       3.589       3.557       3.517       3.486       3.505       3.533       3.553       3.561    
        3.560       3.554       3.547       3.541       3.538    
  18    3.141       3.127       3.095       3.039       2.953       2.858       2.936       3.004       3.043       3.058    
        3.059       3.051       3.042       3.034       3.029    
  19    2.810       2.792       2.749       2.667       2.511       2.164       2.489       2.624       2.685       2.707    
        2.709       2.701       2.690       2.680       2.674    
  20    2.641       2.621       2.576       2.497       2.380       2.258       2.357       2.450       2.506       2.529    
        2.531       2.522       2.510       2.499       2.493    

 HEAD WILL BE SAVED ON UNIT   51 AT END OF TIME STEP    8, STRESS PERIOD    2

 DRAWDOWN WILL BE SAVED ON UNIT   52 AT END OF TIME STEP    8, STRESS PERIOD    2
1
  VOLUMETRIC BUDGET FOR ENTIRE MODEL AT END OF TIME STEP    8, STRESS PERIOD   2
  ------------------------------------------------------------------------------

     CUMULATIVE VOLUMES      L**3       RATES FOR THIS TIME STEP      L**3/T
     ------------------                 ------------------------

           IN:                                      IN:
           ---                                      ---
             STORAGE =         683.3799               STORAGE =           0.0000
       CONSTANT HEAD =        6695.7910         CONSTANT HEAD =         776.8104
               WELLS =        2200.0000                 WELLS =         200.0000
       RIVER LEAKAGE =       84866.4141         RIVER LEAKAGE =        5436.1646

            TOTAL IN =       94445.5859              TOTAL IN =        6412.9751

          OUT:                                     OUT:
          ----                                     ----
             STORAGE =       88772.5312               STORAGE =        5862.9756
       CONSTANT HEAD =           0.0000         CONSTANT HEAD =           0.0000
               WELLS =        5000.0000                 WELLS =         550.0000
       RIVER LEAKAGE =         673.0626         RIVER LEAKAGE =           0.0000

           TOTAL OUT =       94445.5938             TOTAL OUT =        6412.9756

            IN - OUT =      -7.8125E-03              IN - OUT =      -4.8828E-04

 PERCENT DISCREPANCY =          -0.00     PERCENT DISCREPANCY =          -0.00






         TIME SUMMARY AT END OF TIME STEP    8 IN STRESS PERIOD    2
                    SECONDS     MINUTES      HOURS       DAYS        YEARS
                    -----------------------------------------------------------
   TIME STEP LENGTH  86400.      1440.0      24.000      1.0000     2.73785E-03
 STRESS PERIOD TIME 6.91200E+05  11520.      192.00      8.0000     2.19028E-02
         TOTAL TIME 7.77600E+05  12960.      216.00      9.0000     2.46407E-02
1
 
 SOLVING FOR HEAD 

 OUTPUT CONTROL FOR STRESS PERIOD    2   TIME STEP    9
    SAVE HEAD FOR ALL LAYERS
    SAVE DRAWDOWN FOR ALL LAYERS
    SAVE BUDGET
    PRINT HEAD FOR ALL LAYERS
    PRINT BUDGET
 UBDSV1 SAVING "         STORAGE" ON UNIT   1 AT TIME STEP  9, STRESS PERIOD   2
 UBDSV2 SAVING "   CONSTANT HEAD" ON UNIT   1 AT TIME STEP  9, STRESS PERIOD   2
 UBDSV1 SAVING "FLOW RIGHT FACE " ON UNIT   1 AT TIME STEP  9, STRESS PERIOD   2
 UBDSV1 SAVING "FLOW FRONT FACE " ON UNIT   1 AT TIME STEP  9, STRESS PERIOD   2
1
              HEAD IN LAYER   1 AT END OF TIME STEP   9 IN STRESS PERIOD    2
  ---------------------------------------------------------------------------

            1           2           3           4           5           6           7           8           9          10
           11          12          13          14          15
 ........................................................................................................................
   1    3.270       3.270       3.270       3.270       3.270       3.270       3.270       3.270       3.270       3.270    
        3.270       3.270       3.270       3.270       3.270    
   2    2.259       2.197       2.102       2.052       2.187       2.381       2.568       2.741       2.865       2.906    
        2.935       2.953       2.961       2.963       2.963    
   3    1.418       1.284       1.045      0.8242       1.207       1.628       1.993       2.310       2.521       2.597    
        2.654       2.690       2.702       2.702       2.699    
   4   0.8175      0.6269      0.1978     -0.7518      0.4142       1.082       1.571       1.978       2.243       2.348    
        2.436       2.498       2.500       2.487       2.478    
   5   0.5162      0.3784      0.1409     -6.0017E-02  0.3805      0.8800       1.335       1.748       2.031       2.160    
        2.290       2.414       2.364       2.317       2.294    
   6   0.4412      0.3685      0.2720      0.2636      0.5080      0.8590       1.229       1.599       1.874       2.016    
        2.204       2.560       2.280       2.177       2.141    
   7   0.5014      0.4737      0.4520      0.4978      0.6656      0.9143       1.199       1.511       1.762       1.883    
        2.010       2.133       2.083       2.036       2.013    
   8   0.6472      0.6434      0.6547      0.7114      0.8347       1.013       1.228       1.485       1.716       1.812    
        1.897       1.958       1.961       1.949       1.940    
   9   0.8974      0.9032      0.9244      0.9751       1.064       1.189       1.347       1.555       1.773       1.848    
        1.905       1.943       1.957       1.959       1.958    
  10    1.367       1.374       1.393       1.430       1.488       1.566       1.666       1.808       1.984       2.030    
        2.062       2.085       2.098       2.103       2.105    
  11    2.283       2.288       2.299       2.317       2.343       2.373       2.401       2.418       2.400       2.393    
        2.397       2.405       2.413       2.417       2.419    
  12    3.253       3.256       3.260       3.266       3.272       3.272       3.259       3.208       3.015       2.943    
        2.924       2.922       2.925       2.927       2.929    
  13    3.702       3.704       3.706       3.709       3.712       3.711       3.704       3.687       3.664       3.641    
        3.631       3.629       3.630       3.631       3.632    
  14    4.255       4.255       4.256       4.257       4.258       4.258       4.258       4.265       4.305       4.312    
        4.312       4.312       4.312       4.313       4.313    
  15    4.866       4.866       4.865       4.864       4.862       4.862       4.862       4.864       4.868       4.869    
        4.870       4.869       4.869       4.869       4.869    
  16    4.264       4.259       4.249       4.234       4.216       4.205       4.211       4.223       4.234       4.240    
        4.242       4.241       4.238       4.236       4.235    
  17    3.717       3.707       3.685       3.650       3.608       3.576       3.597       3.628       3.652       3.665    
        3.669       3.668       3.664       3.660       3.658    
[...]
        1.100       1.100       1.100       1.100       1.100    
   2    1.759       1.741       1.709       1.684       1.724       1.771       1.797       1.789       1.741       1.741    
        1.751       1.757       1.751       1.740       1.732    
   3    2.220       2.178       2.091       1.987       2.124       2.241       2.307       2.319       2.280       2.294    
        2.324       2.345       2.327       2.296       2.276    
   4    2.537       2.475       2.307       1.860       2.356       2.571       2.679       2.724       2.715       2.760    
        2.838       2.900       2.845       2.773       2.730    
   5    2.760       2.720       2.640       2.547       2.702       2.845       2.948       3.016       3.043       3.134    
        3.306       3.510       3.319       3.159       3.080    
   6    2.890       2.874       2.850       2.845       2.922       3.019       3.109       3.189       3.242       3.375    
        3.689       4.453       3.707       3.412       3.299    
   7    2.929       2.926       2.929       2.950       3.005       3.080       3.160       3.239       3.290       3.392    
        3.571       3.780       3.594       3.438       3.360    
   8    2.880       2.885       2.898       2.926       2.974       3.038       3.109       3.182       3.226       3.292    
        3.386       3.459       3.413       3.346       3.306    
   9    2.757       2.764       2.780       2.808       2.851       2.907       2.973       3.044       3.087       3.133    
        3.188       3.225       3.219       3.195       3.177    
  10    2.573       2.580       2.594       2.619       2.655       2.702       2.764       2.840       2.898       2.939    
        2.979       3.007       3.014       3.010       3.004    
  11    2.344       2.349       2.360       2.377       2.403       2.439       2.490       2.570       2.676       2.724    
        2.762       2.787       2.799       2.802       2.802    
  12    2.191       2.195       2.202       2.214       2.231       2.255       2.289       2.339       2.442       2.504    
        2.540       2.563       2.575       2.580       2.582    
  13    2.134       2.137       2.142       2.151       2.164       2.181       2.203       2.231       2.265       2.298    
        2.321       2.336       2.344       2.349       2.350    
  14    2.073       2.075       2.078       2.083       2.090       2.099       2.109       2.121       2.126       2.137    
        2.146       2.153       2.157       2.159       2.160    
  15    2.010       2.010       2.010       2.011       2.012       2.013       2.014       2.015       2.015       2.015    
        2.015       2.016       2.016       2.016       2.016    
  16    2.037       2.039       2.043       2.049       2.054       2.057       2.054       2.048       2.042       2.037    
        2.033       2.030       2.028       2.027       2.026    
  17    2.063       2.067       2.075       2.086       2.098       2.106       2.097       2.082       2.069       2.058    
        2.049       2.043       2.039       2.036       2.035    
  18    2.085       2.091       2.102       2.121       2.147       2.172       2.144       2.115       2.093       2.076    
        2.063       2.054       2.048       2.044       2.042    
  19    2.100       2.108       2.123       2.150       2.195       2.292       2.192       2.142       2.111       2.089    
        2.073       2.062       2.054       2.050       2.047    
  20    2.109       2.116       2.133       2.159       2.193       2.225       2.189       2.150       2.119       2.095    
        2.078       2.066       2.058       2.053       2.050    

 HEAD WILL BE SAVED ON UNIT   51 AT END OF TIME STEP   98, STRESS PERIOD    3

 DRAWDOWN WILL BE SAVED ON UNIT   52 AT END OF TIME STEP   98, STRESS PERIOD    3
1
  VOLUMETRIC BUDGET FOR ENTIRE MODEL AT END OF TIME STEP   98, STRESS PERIOD   3
  ------------------------------------------------------------------------------

     CUMULATIVE VOLUMES      L**3       RATES FOR THIS TIME STEP      L**3/T
     ------------------                 ------------------------

           IN:                                      IN:
           ---                                      ---
             STORAGE =      165017.9531               STORAGE =         972.9611
       CONSTANT HEAD =       69797.2656         CONSTANT HEAD =           0.0000
               WELLS =       79400.0000                 WELLS =         600.0000
       RIVER LEAKAGE =      211534.9844         RIVER LEAKAGE =           0.0000

            TOTAL IN =      525750.1875              TOTAL IN =        1572.9611

          OUT:                                     OUT:
          ----                                     ----
             STORAGE =      247768.9688               STORAGE =           0.0000
       CONSTANT HEAD =       50454.7539         CONSTANT HEAD =         962.0824
               WELLS =       65400.0000                 WELLS =         100.0000
       RIVER LEAKAGE =      162126.4375         RIVER LEAKAGE =         510.8784

           TOTAL OUT =      525750.1250             TOTAL OUT =        1572.9608

            IN - OUT =       6.2500E-02              IN - OUT =       2.4414E-04

 PERCENT DISCREPANCY =           0.00     PERCENT DISCREPANCY =           0.00






         TIME SUMMARY AT END OF TIME STEP   98 IN STRESS PERIOD    3
                    SECONDS     MINUTES      HOURS       DAYS        YEARS
                    -----------------------------------------------------------
   TIME STEP LENGTH  86400.      1440.0      24.000      1.0000     2.73785E-03
 STRESS PERIOD TIME 8.46720E+06 1.41120E+05  2352.0      98.000     0.26831    
         TOTAL TIME 1.71936E+07 2.86560E+05  4776.0      199.00     0.54483    
1
 
 SOLVING FOR HEAD 

 OUTPUT CONTROL FOR STRESS PERIOD    3   TIME STEP   99
    SAVE HEAD FOR ALL LAYERS
    SAVE DRAWDOWN FOR ALL LAYERS
    SAVE BUDGET
    PRINT HEAD FOR ALL LAYERS
    PRINT BUDGET
 UBDSV1 SAVING "         STORAGE" ON UNIT   1 AT TIME STEP 99, STRESS PERIOD   3
 UBDSV2 SAVING "   CONSTANT HEAD" ON UNIT   1 AT TIME STEP 99, STRESS PERIOD   3
 UBDSV1 SAVING "FLOW RIGHT FACE " ON UNIT   1 AT TIME STEP 99, STRESS PERIOD   3
 UBDSV1 SAVING "FLOW FRONT FACE " ON UNIT   1 AT TIME STEP 99, STRESS PERIOD   3
1
              HEAD IN LAYER   1 AT END OF TIME STEP  99 IN STRESS PERIOD    3
  ---------------------------------------------------------------------------

            1           2           3           4           5           6           7           8           9          10
           11          12          13          14          15
 ........................................................................................................................
   1    1.050       1.050       1.050       1.050       1.050       1.050       1.050       1.050       1.050       1.050    
        1.050       1.050       1.050       1.050       1.050    
   2    1.716       1.697       1.665       1.640       1.680       1.726       1.753       1.744       1.696       1.696    
        1.705       1.711       1.706       1.694       1.686    
   3    2.182       2.140       2.053       1.948       2.085       2.202       2.268       2.279       2.239       2.253    
        2.284       2.304       2.286       2.256       2.235    
   4    2.504       2.442       2.274       1.826       2.322       2.537       2.644       2.688       2.680       2.724    
        2.802       2.864       2.809       2.736       2.693    
   5    2.732       2.692       2.611       2.518       2.673       2.816       2.918       2.985       3.011       3.103    
        3.275       3.478       3.287       3.127       3.048    
   6    2.867       2.851       2.826       2.822       2.897       2.994       3.084       3.163       3.214       3.348    
        3.662       4.426       3.679       3.384       3.271    
   7    2.910       2.907       2.909       2.930       2.985       3.059       3.138       3.216       3.267       3.368    
        3.547       3.756       3.570       3.413       3.336    
   8    2.865       2.870       2.883       2.910       2.958       3.021       3.091       3.163       3.206       3.272    
        3.365       3.439       3.392       3.325       3.285    
   9    2.746       2.753       2.768       2.796       2.838       2.893       2.959       3.029       3.071       3.117    
        3.171       3.208       3.201       3.177       3.160    
  10    2.565       2.572       2.586       2.610       2.646       2.693       2.753       2.828       2.885       2.926    
        2.966       2.993       3.000       2.995       2.990    
  11    2.340       2.345       2.355       2.373       2.398       2.433       2.484       2.563       2.666       2.715    
        2.752       2.777       2.788       2.791       2.791    
  12    2.189       2.192       2.199       2.211       2.228       2.252       2.286       2.335       2.436       2.498    
        2.533       2.555       2.567       2.573       2.574    
  13    2.133       2.135       2.141       2.149       2.162       2.178       2.201       2.228       2.261       2.294    
        2.317       2.331       2.340       2.344       2.346    
  14    2.072       2.074       2.077       2.082       2.089       2.097       2.108       2.119       2.124       2.135    
        2.144       2.151       2.155       2.157       2.158    
  15    2.009       2.010       2.010       2.011       2.012       2.013       2.014       2.014       2.014       2.015    
        2.015       2.016       2.016       2.016       2.016    
  16    2.037       2.039       2.043       2.049       2.054       2.057       2.054       2.048       2.042       2.037    
        2.033       2.030       2.028       2.026       2.026    
  17    2.063       2.067       2.075       2.086       2.098       2.106       2.097       2.082       2.069       2.058    
        2.049       2.043       2.039       2.036       2.035    
  18    2.085       2.090       2.102       2.121       2.147       2.172       2.144       2.115       2.092       2.075    
        2.063       2.054       2.048       2.044       2.042    
  19    2.100       2.107       2.123       2.149       2.195       2.292       2.192       2.142       2.110       2.088    
        2.073       2.062       2.054       2.049       2.047    
  20    2.108       2.116       2.133       2.158       2.193       2.224       2.189       2.150       2.118       2.095    
        2.078       2.066       2.058       2.052       2.050    

 HEAD WILL BE SAVED ON UNIT   51 AT END OF TIME STEP   99, STRESS PERIOD    3

 DRAWDOWN WILL BE SAVED ON UNIT   52 AT END OF TIME STEP   99, STRESS PERIOD    3
1
  VOLUMETRIC BUDGET FOR ENTIRE MODEL AT END OF TIME STEP   99, STRESS PERIOD   3
  ------------------------------------------------------------------------------

     CUMULATIVE VOLUMES      L**3       RATES FOR THIS TIME STEP      L**3/T
     ------------------                 ------------------------

           IN:                                      IN:
           ---                                      ---
             STORAGE =      165992.3750               STORAGE =         974.4207
       CONSTANT HEAD =       69797.2656         CONSTANT HEAD =           0.0000
               WELLS =       80000.0000                 WELLS =         600.0000
       RIVER LEAKAGE =      211534.9844         RIVER LEAKAGE =           0.0000

            TOTAL IN =      527324.6250              TOTAL IN =        1574.4207

          OUT:                                     OUT:
          ----                                     ----
             STORAGE =      247768.9688               STORAGE =           0.0000
       CONSTANT HEAD =       51423.5625         CONSTANT HEAD =         968.8068
               WELLS =       65500.0000                 WELLS =         100.0000
       RIVER LEAKAGE =      162632.0469         RIVER LEAKAGE =         505.6126

           TOTAL OUT =      527324.5625             TOTAL OUT =        1574.4194

            IN - OUT =       6.2500E-02              IN - OUT =       1.2207E-03

 PERCENT DISCREPANCY =           0.00     PERCENT DISCREPANCY =           0.00






         TIME SUMMARY AT END OF TIME STEP   99 IN STRESS PERIOD    3
                    SECONDS     MINUTES      HOURS       DAYS        YEARS
                    -----------------------------------------------------------
   TIME STEP LENGTH  86400.      1440.0      24.000      1.0000     2.73785E-03
 STRESS PERIOD TIME 8.55360E+06 1.42560E+05  2376.0      99.000     0.27105    
         TOTAL TIME 1.72800E+07 2.88000E+05  4800.0      200.00     0.54757    
1
 
 SOLVING FOR HEAD 

 OUTPUT CONTROL FOR STRESS PERIOD    3   TIME STEP  100
    SAVE HEAD FOR ALL LAYERS
    SAVE DRAWDOWN FOR ALL LAYERS
    SAVE BUDGET
    PRINT HEAD FOR ALL LAYERS
    PRINT BUDGET
 UBDSV1 SAVING "         STORAGE" ON UNIT   1 AT TIME STEP100, STRESS PERIOD   3
 UBDSV2 SAVING "   CONSTANT HEAD" ON UNIT   1 AT TIME STEP100, STRESS PERIOD   3
 UBDSV1 SAVING "FLOW RIGHT FACE " ON UNIT   1 AT TIME STEP100, STRESS PERIOD   3
 UBDSV1 SAVING "FLOW FRONT FACE " ON UNIT   1 AT TIME STEP100, STRESS PERIOD   3
1
              HEAD IN LAYER   1 AT END OF TIME STEP 100 IN STRESS PERIOD    3
  ---------------------------------------------------------------------------

            1           2           3           4           5           6           7           8           9          10
           11          12          13          14          15
 ........................................................................................................................
   1    1.000       1.000       1.000       1.000       1.000       1.000       1.000       1.000       1.000       1.000    
        1.000       1.000       1.000       1.000       1.000    
   2    1.672       1.653       1.621       1.596       1.636       1.682       1.708       1.700       1.651       1.651    
        1.660       1.666       1.660       1.649       1.641    
   3    2.144       2.102       2.015       1.909       2.046       2.163       2.228       2.239       2.199       2.213    
        2.243       2.264       2.246       2.215       2.194    
   4    2.471       2.409       2.240       1.792       2.288       2.503       2.610       2.653       2.644       2.689    
        2.766       2.828       2.773       2.700       2.657    
   5    2.704       2.664       2.583       2.490       2.644       2.786       2.888       2.954       2.980       3.071    
        3.243       3.447       3.255       3.095       3.016    
   6    2.844       2.828       2.803       2.798       2.873       2.968       3.058       3.136       3.187       3.320    
        3.634       4.398       3.651       3.356       3.242    
   7    2.891       2.888       2.890       2.910       2.965       3.038       3.116       3.193       3.243       3.344    
        3.523       3.732       3.546       3.389       3.311    
   8    2.850       2.855       2.867       2.895       2.941       3.003       3.073       3.144       3.187       3.252    
        3.345       3.418       3.371       3.304       3.264    
   9    2.734       2.741       2.757       2.784       2.826       2.880       2.944       3.013       3.055       3.100    
        3.154       3.191       3.184       3.160       3.142    
  10    2.557       2.564       2.578       2.602       2.637       2.683       2.743       2.817       2.873       2.913    
        2.952       2.980       2.986       2.981       2.976    
  11    2.335       2.340       2.351       2.368       2.393       2.428       2.477       2.555       2.657       2.705    
        2.742       2.766       2.778       2.780       2.780    
  12    2.186       2.190       2.197       2.208       2.225       2.249       2.282       2.331       2.431       2.491    
        2.526       2.548       2.560       2.565       2.567    
  13    2.131       2.134       2.139       2.147       2.160       2.176       2.198       2.225       2.258       2.291    
        2.313       2.327       2.335       2.340       2.341    
  14    2.071       2.073       2.076       2.081       2.087       2.096       2.107       2.118       2.123       2.133    
        2.142       2.149       2.153       2.155       2.156    
  15    2.009       2.010       2.010       2.011       2.012       2.013       2.014       2.014       2.014       2.015    
        2.015       2.015       2.016       2.016       2.016    
  16    2.037       2.039       2.043       2.048       2.054       2.057       2.054       2.048       2.042       2.037    
        2.033       2.030       2.027       2.026       2.025    
  17    2.063       2.067       2.074       2.085       2.098       2.106       2.096       2.082       2.068       2.057    
        2.049       2.043       2.038       2.036       2.034    
  18    2.084       2.090       2.102       2.121       2.147       2.172       2.144       2.115       2.092       2.075    
        2.063       2.054       2.047       2.044       2.042    
  19    2.100       2.107       2.123       2.149       2.195       2.291       2.191       2.142       2.110       2.088    
        2.073       2.061       2.054       2.049       2.047    
  20    2.108       2.116       2.132       2.158       2.193       2.224       2.188       2.149       2.118       2.095    
        2.078       2.066       2.057       2.052       2.050    

 HEAD WILL BE SAVED ON UNIT   51 AT END OF TIME STEP  100, STRESS PERIOD    3

 DRAWDOWN WILL BE SAVED ON UNIT   52 AT END OF TIME STEP  100, STRESS PERIOD    3
1
  VOLUMETRIC BUDGET FOR ENTIRE MODEL AT END OF TIME STEP  100, STRESS PERIOD   3
  ------------------------------------------------------------------------------

     CUMULATIVE VOLUMES      L**3       RATES FOR THIS TIME STEP      L**3/T
     ------------------                 ------------------------

           IN:                                      IN:
           ---                                      ---
             STORAGE =      166968.2188               STORAGE =         975.8453
       CONSTANT HEAD =       69797.2656         CONSTANT HEAD =           0.0000
               WELLS =       80600.0000                 WELLS =         600.0000
       RIVER LEAKAGE =      211534.9844         RIVER LEAKAGE =           0.0000

            TOTAL IN =      528900.5000              TOTAL IN =        1575.8453

          OUT:                                     OUT:
          ----                                     ----
             STORAGE =      247768.9688               STORAGE =           0.0000
       CONSTANT HEAD =       52399.0625         CONSTANT HEAD =         975.4992
               WELLS =       65600.0000                 WELLS =         100.0000
       RIVER LEAKAGE =      163132.3906         RIVER LEAKAGE =         500.3472

           TOTAL OUT =      528900.4375             TOTAL OUT =        1575.8464

            IN - OUT =       6.2500E-02              IN - OUT =      -1.0986E-03

 PERCENT DISCREPANCY =           0.00     PERCENT DISCREPANCY =          -0.00






         TIME SUMMARY AT END OF TIME STEP  100 IN STRESS PERIOD    3
                    SECONDS     MINUTES      HOURS       DAYS        YEARS
                    -----------------------------------------------------------
   TIME STEP LENGTH  86400.      1440.0      24.000      1.0000     2.73785E-03
 STRESS PERIOD TIME 8.64000E+06 1.44000E+05  2400.0      100.00     0.27379    
         TOTAL TIME 1.73664E+07 2.89440E+05  4824.0      201.00     0.55031    
1

 Run end date and time (yyyy/mm/dd hh:mm:ss): 2024/02/26 19:50:44
 Elapsed run time:  0.300 Seconds

