                                  MODFLOW-2005     
      U.S. GEOLOGICAL SURVEY MODULAR FINITE-DIFFERENCE GROUND-WATER FLOW MODEL
                            VERSION 1.12.00 2/3/2017

 LIST FILE: mf.list
                         UNIT    2

 OPENING mf.dis
 FILE TYPE:DIS   UNIT   11   STATUS:OLD    
 FORMAT:FORMATTED              ACCESS:SEQUENTIAL          

 OPENING mf.bas
 FILE TYPE:BAS6   UNIT   13   STATUS:OLD    
 FORMAT:FORMATTED              ACCESS:SEQUENTIAL          

 OPENING mf.lpf
 FILE TYPE:LPF   UNIT   15   STATUS:OLD    
 FORMAT:FORMATTED              ACCESS:SEQUENTIAL          

 OPENING mf.wel
 FILE TYPE:WEL   UNIT   20   STATUS:OLD    
 FORMAT:FORMATTED              ACCESS:SEQUENTIAL          

 OPENING mf.oc
 FILE TYPE:OC   UNIT   14   STATUS:OLD    
 FORMAT:FORMATTED              ACCESS:SEQUENTIAL          

 OPENING mf.pcg
 FILE TYPE:PCG   UNIT   27   STATUS:OLD    
 FORMAT:FORMATTED              ACCESS:SEQUENTIAL          

 OPENING mf.lmt6
 FILE TYPE:LMT6   UNIT   30   STATUS:OLD    
 FORMAT:FORMATTED              ACCESS:SEQUENTIAL          

 OPENING mf.cbc
 FILE TYPE:DATA(BINARY)   UNIT    1   STATUS:REPLACE
 FORMAT:UNFORMATTED            ACCESS:STREAM              

 OPENING mf.hds
 FILE TYPE:DATA(BINARY)   UNIT   51   STATUS:REPLACE
 FORMAT:UNFORMATTED            ACCESS:STREAM              

 BAS -- BASIC PACKAGE, VERSION 7, 5/2/2005 INPUT READ FROM UNIT   13
 
 MODFLOW was compiled using mixed precision
 Precision of REAL variables:           6
 Precision of DOUBLE PRECISION variables:          15

 DISCRETIZATION INPUT DATA READ FROM UNIT   11
 # DIS package for MODFLOW-2005 generated by Flopy 3.7.0
    1 LAYERS        40 ROWS        32 COLUMNS
    1 STRESS PERIOD(S) IN SIMULATION
 MODEL TIME UNIT IS DAYS
 MODEL LENGTH UNIT IS METERS
  Confining bed flag for each layer:
   0

                     DELR =   50.0000    

                     DELC =   50.0000    

 TOP ELEVATION OF LAYER 1 =   10.0000    

   MODEL LAYER BOTTOM EL. =   0.00000     FOR LAYER   1


 STRESS PERIOD     LENGTH       TIME STEPS     MULTIPLIER FOR DELT    SS FLAG
 ----------------------------------------------------------------------------
        1         365.0000         30                    1.000         SS

 STEADY-STATE SIMULATION



 
 # BAS6 package for MODFLOW-2005 generated by Flopy 3.7.0                        
 THE FREE FORMAT OPTION HAS BEEN SELECTED



                     BOUNDARY ARRAY FOR LAYER   1
 READING ON UNIT   13 WITH FORMAT: (32I10)             

 AQUIFER HEAD WILL BE SET TO  -999.99     AT ALL NO-FLOW NODES (IBOUND=0).



                       INITIAL HEAD FOR LAYER   1
 READING ON UNIT   13 WITH FORMAT: (32E15.6)           
 # OC package for MODFLOW-2005 generated by Flopy 3.7.0

 OUTPUT CONTROL IS SPECIFIED ONLY AT TIME STEPS FOR WHICH OUTPUT IS DESIRED
 COMPACT CELL-BY-CELL BUDGET FILES WILL BE WRITTEN
 AUXILIARY DATA WILL BE SAVED IN CELL-BY-CELL BUDGET FILES
 HEAD PRINT FORMAT CODE IS   0    DRAWDOWN PRINT FORMAT CODE IS   0
 HEADS WILL BE SAVED ON UNIT   51    DRAWDOWNS WILL BE SAVED ON UNIT    0

 LPF -- LAYER-PROPERTY FLOW PACKAGE, VERSION 7, 5/2/2005
         INPUT READ FROM UNIT   15
 # LPF package for MODFLOW-2005 generated by Flopy 3.7.0
 CELL-BY-CELL FLOWS WILL BE SAVED ON UNIT    1
 HEAD AT CELLS THAT CONVERT TO DRY= -1.00000E+30
 No named parameters

   LAYER FLAGS:
 LAYER       LAYTYP        LAYAVG         CHANI        LAYVKA        LAYWET
 ---------------------------------------------------------------------------
    1             0             0     1.000E+00             0             0

   INTERPRETATION OF LAYER FLAGS:
                        INTERBLOCK     HORIZONTAL    DATA IN
         LAYER TYPE   TRANSMISSIVITY   ANISOTROPY   ARRAY VKA   WETTABILITY
 LAYER      (LAYTYP)      (LAYAVG)       (CHANI)      (LAYVKA)      (LAYWET)
 ---------------------------------------------------------------------------
    1      CONFINED      HARMONIC     1.000E+00    VERTICAL K  NON-WETTABLE

 WETTING CAPABILITY IS NOT ACTIVE IN ANY LAYER



              HYD. COND. ALONG ROWS FOR LAYER   1
 READING ON UNIT   15 WITH FORMAT: (32E15.6)           



                VERTICAL HYD. COND. FOR LAYER   1
 READING ON UNIT   15 WITH FORMAT: (32E15.6)           

 WEL -- WELL PACKAGE, VERSION 7, 5/2/2005 INPUT READ FROM UNIT   20
 # WEL package for MODFLOW-2005 generated by Flopy 3.7.0
 No named parameters
 MAXIMUM OF      2 ACTIVE WELLS AT ONE TIME


     0 Well parameters

 PCG -- CONJUGATE-GRADIENT SOLUTION PACKAGE, VERSION 7, 5/2/2005
 # PCG package for MODFLOW-2005 generated by Flopy 3.7.0
 MAXIMUM OF     50 CALLS OF SOLUTION ROUTINE
 MAXIMUM OF     30 INTERNAL ITERATIONS PER CALL TO SOLUTION ROUTINE
 MATRIX PRECONDITIONING TYPE :    1



                                    SOLUTION BY THE CONJUGATE-GRADIENT METHOD
                                   -------------------------------------------
                    MAXIMUM NUMBER OF CALLS TO PCG ROUTINE =       50
                        MAXIMUM ITERATIONS PER CALL TO PCG =       30
                               MATRIX PRECONDITIONING TYPE =        1
        RELAXATION FACTOR (ONLY USED WITH PRECOND. TYPE 1) =    0.10000E+01
 PARAMETER OF POLYNOMIAL PRECOND. = 2 (2) OR IS CALCULATED :        0
                         HEAD CHANGE CRITERION FOR CLOSURE =    0.10000E-04
                     RESIDUAL CHANGE CRITERION FOR CLOSURE =    0.10000E-04
            PCG HEAD AND RESIDUAL CHANGE PRINTOUT INTERVAL =      999
     PRINTING FROM SOLVER IS LIMITED(1) OR SUPPRESSED (>1) =        3
                            STEADY-STATE DAMPING PARAMETER =    0.10000E+01
                               TRANSIENT DAMPING PARAMETER =    0.10000E+01


 ***Link-MT3DMS Package v7***
 OPENING LINK-MT3DMS OUTPUT FILE: mt3d_link.ftl                                                                                                                                                                                           
 ON UNIT NUMBER:    54
 FILE TYPE: UNFORMATTED
 HEADER OPTION: EXTENDED
 ***Link-MT3DMS Package v7***

1
                            STRESS PERIOD NO.    1, LENGTH =   365.0000    
                            -----------------------------------------------

                              NUMBER OF TIME STEPS =    30

                               MULTIPLIER FOR DELT =     1.000

                            INITIAL TIME STEP SIZE =   12.16667    

 WELL NO.  LAYER   ROW   COL   STRESS RATE         
 --------------------------------------------------
      1      1     10     16       86.40    
      2      1     24     16      -1633.    

      2 WELLS
 
 SOLVING FOR HEAD 

 OUTPUT CONTROL FOR STRESS PERIOD    1   TIME STEP    1
    PRINT HEAD FOR ALL LAYERS
    PRINT BUDGET
    SAVE HEAD FOR ALL LAYERS
    SAVE BUDGET
 UBDSV2 SAVING "   CONSTANT HEAD" ON UNIT   1 AT TIME STEP  1, STRESS PERIOD   1
 UBDSV1 SAVING "FLOW RIGHT FACE " ON UNIT   1 AT TIME STEP  1, STRESS PERIOD   1
 UBDSV1 SAVING "FLOW FRONT FACE " ON UNIT   1 AT TIME STEP  1, STRESS PERIOD   1

 SAVING SATURATED THICKNESS AND FLOW TERMS ON UNIT   54 FOR MT3DMS
 BY THE LINK-MT3DMS PACKAGE V7 AT TIME STEP    1, STRESS PERIOD    1

1
              HEAD IN LAYER   1 AT END OF TIME STEP   1 IN STRESS PERIOD    1
  ---------------------------------------------------------------------------

            1           2           3           4           5           6           7           8           9          10
           11          12          13          14          15          16          17          18          19          20
           21          22          23          24          25          26          27          28          29          30
           31          32
 ........................................................................................................................
   1    250.0       250.0       250.0       250.0       250.0       250.0       250.0       250.0       250.0       250.0    
        250.0       250.0       250.0       250.0       250.0       250.0       250.0       250.0       250.0       250.0    
        250.0       250.0       250.0       250.0       250.0       250.0       250.0       250.0       250.0       250.0    
        250.0       250.0    
   2    245.9       245.9       246.1       246.2       246.4       246.6       246.8       247.0       247.1       247.2    
        247.2       247.2       247.1       247.0       246.8       246.6       246.4       246.1       245.8       245.5    
        245.3       245.0       244.8       244.7       244.5       244.4       244.3       244.2       244.2       244.2    
        244.1       244.1    
   3    241.7       241.8       242.1       242.4       242.8       243.2       243.6       244.0       244.2       244.4    
        244.5       244.5       244.3       244.1       243.7       243.3       242.8       242.2       241.6       241.0    
        240.5       240.0       239.6       239.3       239.0       238.8       238.6       238.5       238.4       238.3    
        238.3       238.2    
   4    237.4       237.6       238.0       238.5       239.2       239.9       240.5       241.1       241.5       241.8    
        241.9       241.9       241.6       241.2       240.7       240.0       239.2       238.3       237.4       236.5    
        235.7       235.0       234.4       233.9       233.5       233.1       232.9       232.7       232.5       232.4    
        232.3       232.3    
   5    232.9       233.2       233.8       234.6       235.5       236.5       237.5       238.3       238.9       239.3    
        239.5       239.4       239.1       238.6       237.8       236.8       235.7       234.4       233.1       231.9    
        230.8       229.8       229.0       228.4       227.8       227.4       227.1       226.8       226.6       226.5    
        226.4       226.4    
   6    228.1       228.5       229.3       230.5       231.8       233.2       234.5       235.6       236.5       237.0    
        237.3       237.2       236.8       236.1       235.1       233.9       232.3       230.6       228.8       227.2    
        225.7       224.5       223.5       222.7       222.1       221.6       221.2       220.9       220.7       220.5    
        220.4       220.4    
   7    222.8       223.4       224.5       226.1       228.1       230.1       231.8       233.3       234.4       235.1    
        235.4       235.3       234.9       234.0       232.8       231.1       229.1       226.8       224.4       222.3    
        220.5       219.0       217.8       216.9       216.2       215.6       215.2       214.9       214.7       214.5    
        214.4       214.3    
   8    217.1       217.8       219.2       221.5       224.3       227.1       229.4       231.3       232.6       233.5    
        233.9       233.8       233.3       232.3       230.8       228.8       226.2       223.1       219.8       217.0    
        214.8       213.2       211.9       210.9       210.1       209.6       209.1       208.8       208.6       208.4    
        208.3       208.3    
   9    210.6       211.4       213.1       216.2       220.7       224.6       227.6       229.8       231.4       232.3    
        232.8       232.7       232.2       231.1       229.4       227.0       223.7       219.5       214.7       211.2    
        208.7       206.9       205.6       204.7       203.9       203.4       203.0       202.6       202.4       202.3    
        202.2       202.1    
  10    203.2       204.0       205.8       209.4       217.7       222.9       226.5       229.0       230.7       231.8    
        232.2       232.2       231.6       230.4       228.7       226.2       222.2       216.6       208.2       204.3    
        201.9       200.2       199.1       198.2       197.5       197.0       196.7       196.4       196.2       196.1    
        196.0       195.9    
  11    195.1       195.7       196.7       198.0       206.1       213.3       217.5       220.1       221.8       222.8    
        223.3       223.3       222.7       221.7       219.9       217.2       212.9       205.5       197.3       195.8    
        194.3       193.1       192.2       191.5       190.9       190.6       190.3       190.1       189.9       189.8    
        189.7       189.7    
  12    186.5       186.8       187.3       187.8       191.9       197.4       200.9       203.2       204.7       205.6    
        206.0       206.0       205.6       204.8       203.4       201.1       197.5       192.0       187.9       187.3    
        186.4       185.7       185.1       184.6       184.2       184.0       183.8       183.7       183.6       183.5    
        183.5       183.5    
  13    177.6       177.7       178.0       178.1       180.2       183.4       185.6       187.2       188.2       188.8    
        189.1       189.1       189.0       188.5       187.6       186.3       184.2       181.1       179.2       178.9    
        178.5       178.1       177.8       177.6       177.4       177.3       177.3       177.2       177.2       177.2    
        177.2       177.2    
  14    168.5       168.6       168.6       168.7       169.3       170.3       171.1       171.7       172.0       172.3    
        172.4       172.5       172.6       172.5       172.4       172.2       171.8       171.1       170.7       170.6    
        170.6       170.5       170.5       170.6       170.6       170.6       170.7       170.8       170.8       170.9    
        170.9       170.9    
  15    159.4       159.4       159.3       159.2       158.6       157.6       156.8       156.3       156.0       155.9    
        155.8       156.0       156.3       156.7       157.4       158.3       159.6       161.2       162.2       162.4    
        162.6       162.9       163.2       163.5       163.7       164.0       164.2       164.3       164.5       164.6    
        164.6       164.7    
  16    150.3       150.2       150.0       149.8       147.7       144.5       142.3       140.8       139.8       139.3    
        139.1       139.3       139.8       140.6       142.0       144.1       147.0       151.1       153.6       154.0    
        154.6       155.3       155.9       156.4       156.9       157.3       157.6       157.9       158.1       158.3    
        158.4       158.4    
  17    141.4       141.1       140.6       140.1       136.0       130.5       126.9       124.7       123.2       122.4    
        122.1       122.2       122.9       124.1       126.0       128.9       133.3       139.9       144.6       145.5    
        146.6       147.6       148.6       149.4       150.1       150.7       151.2       151.5       151.8       152.0    
        152.2       152.3    
  18    132.8       132.3       131.2       129.9       121.8       114.5       110.3       107.7       106.0       105.0    
        104.6       104.7       105.4       106.8       109.0       112.3       117.3       125.8       134.8       136.7    
        138.5       140.1       141.5       142.6       143.5       144.2       144.8       145.3       145.6       145.9    
        146.1       146.1    
  19    124.7       123.9       122.1       118.5       110.2       104.9       101.3       98.75       97.01       95.96    
        95.50       95.64       96.38       97.80      100.00       103.2       107.6       113.9       123.2       127.8    
        130.8       132.9       134.6       135.9       137.0       137.9       138.6       139.1       139.5       139.8    
        140.0       140.1    
  20    117.4       116.6       114.8       111.7       107.2       103.2       100.2       97.92       96.32       95.33    
        94.90       95.01       95.69       96.99       99.01       101.9       105.8       110.7       116.4       120.7    
        123.8       126.2       128.0       129.5       130.7       131.7       132.5       133.1       133.5       133.9    
        134.1       134.2    
  21    110.9       110.2       108.7       106.4       103.5       100.7       98.30       96.41       95.03       94.15    
        93.75       93.82       94.38       95.47       97.16       99.60       102.9       106.8       111.0       114.6    
        117.6       119.9       121.9       123.4       124.7       125.7       126.5       127.2       127.7       128.0    
        128.3       128.4    
  22    105.2       104.6       103.5       101.8       99.78       97.73       95.89       94.38       93.24       92.49    
        92.13       92.14       92.54       93.34       94.58       96.46       99.33       102.7       106.1       109.2    
        111.9       114.2       116.1       117.6       118.9       119.9       120.8       121.4       122.0       122.3    
        122.6       122.7    
  23    100.0       99.58       98.72       97.50       96.05       94.56       93.17       91.99       91.07       90.44    
        90.12       90.08       90.31       90.75       91.37       92.32       95.31       98.49       101.5       104.3    
        106.7       108.8       110.6       112.1       113.3       114.3       115.2       115.9       116.4       116.8    
        117.0       117.1    
  24    95.30       94.97       94.33       93.44       92.38       91.28       90.23       89.32       88.60       88.10    
        87.82       87.76       87.86       87.99       87.82       86.15       91.11       94.44       97.22       99.66    
        101.8       103.7       105.4       106.8       107.9       108.9       109.8       110.4       110.9       111.3    
        111.5       111.7    
  25    90.91       90.66       90.19       89.53       88.76       87.95       87.16       86.47       85.92       85.53    
        85.32       85.27       85.36       85.55       85.77       86.19       88.53       90.96       93.24       95.33    
        97.22       98.90       100.4       101.7       102.8       103.7       104.5       105.1       105.6       106.0    
        106.2       106.3    
  26    86.76       86.58       86.23       85.75       85.18       84.58       84.00       83.48       83.07       82.78    
        82.64       82.64       82.78       83.06       83.52       84.33       85.85       87.64       89.45       91.19    
        92.81       94.29       95.61       96.78       97.79       98.66       99.39       99.98       100.4       100.8    
        101.0       101.1    
  27    82.79       82.66       82.41       82.06       81.64       81.20       80.77       80.39       80.09       79.90    
        79.82       79.87       80.06       80.40       80.93       81.74       82.91       84.28       85.73       87.17    
        88.55       89.83       90.99       92.03       92.95       93.74       94.41       94.96       95.39       95.71    
        95.92       96.03    
  28    78.96       78.87       78.68       78.42       78.12       77.80       77.49       77.22       77.01       76.89    
        76.87       76.96       77.18       77.54       78.07       78.80       79.75       80.85       82.03       83.22    
        84.38       85.48       86.50       87.42       88.23       88.94       89.55       90.05       90.45       90.74    
        90.94       91.03    
  29    75.23       75.16       75.03       74.84       74.62       74.39       74.17       73.98       73.85       73.79    
        73.81       73.93       74.16       74.52       75.01       75.65       76.44       77.34       78.31       79.30    
        80.28       81.22       82.10       82.90       83.62       84.25       84.79       85.24       85.60       85.87    
        86.05       86.14    
  30    71.57       71.52       71.42       71.29       71.13       70.97       70.82       70.70       70.62       70.60    
        70.65       70.79       71.02       71.35       71.79       72.35       73.02       73.76       74.57       75.40    
        76.22       77.02       77.77       78.47       79.09       79.65       80.13       80.53       80.85       81.09    
        81.25       81.33    
  31    67.96       67.92       67.85       67.76       67.65       67.54       67.44       67.36       67.32       67.34    
        67.41       67.55       67.77       68.07       68.47       68.95       69.51       70.13       70.80       71.49    
        72.18       72.86       73.50       74.10       74.64       75.13       75.54       75.90       76.18       76.39    
        76.53       76.61    
  32    64.38       64.36       64.31       64.24       64.17       64.10       64.03       63.99       63.98       64.01    
        64.09       64.23       64.44       64.71       65.05       65.46       65.93       66.46       67.01       67.59    
        68.17       68.73       69.28       69.78       70.25       70.67       71.03       71.33       71.58       71.76    
        71.89       71.95    
  33    60.83       60.82       60.78       60.74       60.69       60.64       60.61       60.59       60.60       60.64    
        60.72       60.86       61.04       61.28       61.57       61.92       62.31       62.74       63.20       63.68    
        64.16       64.63       65.09       65.51       65.91       66.26       66.57       66.83       67.04       67.20    
        67.30       67.36    
  34    57.30       57.29       57.27       57.24       57.21       57.18       57.16       57.16       57.18       57.22    
        57.31       57.42       57.59       57.79       58.04       58.32       58.65       59.00       59.38       59.77    
        60.16       60.55       60.93       61.28       61.60       61.90       62.15       62.37       62.55       62.68    
        62.77       62.82    
  35    53.78       53.77       53.76       53.74       53.72       53.71       53.70       53.71       53.73       53.78    
        53.85       53.95       54.09       54.26       54.46       54.69       54.96       55.24       55.54       55.86    
        56.17       56.48       56.78       57.07       57.33       57.57       57.78       57.96       58.10       58.21    
        58.29       58.32    
  36    50.27       50.26       50.25       50.24       50.23       50.23       50.23       50.24       50.26       50.30    
        50.36       50.45       50.56       50.69       50.85       51.04       51.24       51.46       51.70       51.94    
        52.18       52.43       52.66       52.88       53.09       53.27       53.44       53.58       53.69       53.78    
        53.84       53.86    
  37    46.76       46.76       46.75       46.75       46.74       46.74       46.74       46.75       46.77       46.81    
        46.85       46.92       47.00       47.10       47.22       47.36       47.51       47.67       47.84       48.02    
        48.20       48.38       48.55       48.71       48.86       49.00       49.12       49.22       49.31       49.37    
        49.41       49.44    
  38    43.26       43.25       43.25       43.25       43.25       43.24       43.25       43.26       43.27       43.29    
        43.33       43.37       43.43       43.49       43.57       43.66       43.76       43.87       43.98       44.10    
        44.21       44.33       44.44       44.55       44.65       44.74       44.82       44.89       44.94       44.99    
        45.01       45.03    
  39    39.75       39.75       39.75       39.75       39.75       39.75       39.75       39.75       39.76       39.77    
        39.79       39.81       39.84       39.87       39.91       39.96       40.01       40.06       40.12       40.17    
        40.23       40.29       40.35       40.40       40.45       40.49       40.53       40.57       40.59       40.61    
        40.63       40.64    
  40    36.25       36.25       36.25       36.25       36.25       36.25       36.25       36.25       36.25       36.25    
        36.25       36.25       36.25       36.25       36.25       36.25       36.25       36.25       36.25       36.25    
        36.25       36.25       36.25       36.25       36.25       36.25       36.25       36.25       36.25       36.25    
        36.25       36.25    

 HEAD WILL BE SAVED ON UNIT   51 AT END OF TIME STEP    1, STRESS PERIOD    1
1
  VOLUMETRIC BUDGET FOR ENTIRE MODEL AT END OF TIME STEP    1, STRESS PERIOD   1
  ------------------------------------------------------------------------------

     CUMULATIVE VOLUMES      L**3       RATES FOR THIS TIME STEP      L**3/T
     ------------------                 ------------------------

           IN:                                      IN:
           ---                                      ---
             STORAGE =           0.0000               STORAGE =           0.0000
       CONSTANT HEAD =      208674.4688         CONSTANT HEAD =       17151.3262
               WELLS =        1051.2001                 WELLS =          86.4000

            TOTAL IN =      209725.6719              TOTAL IN =       17237.7266

          OUT:                                     OUT:
          ----                                     ----
             STORAGE =           0.0000               STORAGE =           0.0000
       CONSTANT HEAD =      189857.5000         CONSTANT HEAD =       15604.7256
               WELLS =       19868.1680                 WELLS =        1633.0000

           TOTAL OUT =      209725.6719             TOTAL OUT =       17237.7266

            IN - OUT =           0.0000              IN - OUT =           0.0000

 PERCENT DISCREPANCY =           0.00     PERCENT DISCREPANCY =           0.00






         TIME SUMMARY AT END OF TIME STEP    1 IN STRESS PERIOD    1
                    SECONDS     MINUTES      HOURS       DAYS        YEARS
                    -----------------------------------------------------------
   TIME STEP LENGTH 1.05120E+06  17520.      292.00      12.167     3.33105E-02
 STRESS PERIOD TIME 1.05120E+06  17520.      292.00      12.167     3.33105E-02
         TOTAL TIME 1.05120E+06  17520.      292.00      12.167     3.33105E-02
1
 
 SOLVING FOR HEAD 

 NO OUTPUT CONTROL FOR STRESS PERIOD    1   TIME STEP    2

 SAVING SATURATED THICKNESS AND FLOW TERMS ON UNIT   54 FOR MT3DMS
 BY THE LINK-MT3DMS PACKAGE V7 AT TIME STEP    2, STRESS PERIOD    1

 
 SOLVING FOR HEAD 

 NO OUTPUT CONTROL FOR STRESS PERIOD    1   TIME STEP    3

 SAVING SATURATED THICKNESS AND FLOW TERMS ON UNIT   54 FOR MT3DMS
 BY THE LINK-MT3DMS PACKAGE V7 AT TIME STEP    3, STRESS PERIOD    1

 
 SOLVING FOR HEAD 

 NO OUTPUT CONTROL FOR STRESS PERIOD    1   TIME STEP    4

 SAVING SATURATED THICKNESS AND FLOW TERMS ON UNIT   54 FOR MT3DMS
 BY THE LINK-MT3DMS PACKAGE V7 AT TIME STEP    4, STRESS PERIOD    1

 
 SOLVING FOR HEAD 

 NO OUTPUT CONTROL FOR STRESS PERIOD    1   TIME STEP    5

 SAVING SATURATED THICKNESS AND FLOW TERMS ON UNIT   54 FOR MT3DMS
 BY THE LINK-MT3DMS PACKAGE V7 AT TIME STEP    5, STRESS PERIOD    1

 
 SOLVING FOR HEAD 

 NO OUTPUT CONTROL FOR STRESS PERIOD    1   TIME STEP    6

 SAVING SATURATED THICKNESS AND FLOW TERMS ON UNIT   54 FOR MT3DMS
 BY THE LINK-MT3DMS PACKAGE V7 AT TIME STEP    6, STRESS PERIOD    1

 
 SOLVING FOR HEAD 

 NO OUTPUT CONTROL FOR STRESS PERIOD    1   TIME STEP    7

 SAVING SATURATED THICKNESS AND FLOW TERMS ON UNIT   54 FOR MT3DMS
 BY THE LINK-MT3DMS PACKAGE V7 AT TIME STEP    7, STRESS PERIOD    1

 
 SOLVING FOR HEAD 

 NO OUTPUT CONTROL FOR STRESS PERIOD    1   TIME STEP    8

 SAVING SATURATED THICKNESS AND FLOW TERMS ON UNIT   54 FOR MT3DMS
 BY THE LINK-MT3DMS PACKAGE V7 AT TIME STEP    8, STRESS PERIOD    1

 
 SOLVING FOR HEAD 

 NO OUTPUT CONTROL FOR STRESS PERIOD    1   TIME STEP    9

 SAVING SATURATED THICKNESS AND FLOW TERMS ON UNIT   54 FOR MT3DMS
 BY THE LINK-MT3DMS PACKAGE V7 AT TIME STEP    9, STRESS PERIOD    1

 
 SOLVING FOR HEAD 

 NO OUTPUT CONTROL FOR STRESS PERIOD    1   TIME STEP   10

 SAVING SATURATED THICKNESS AND FLOW TERMS ON UNIT   54 FOR MT3DMS
 BY THE LINK-MT3DMS PACKAGE V7 AT TIME STEP   10, STRESS PERIOD    1

 
 SOLVING FOR HEAD 

 NO OUTPUT CONTROL FOR STRESS PERIOD    1   TIME STEP   11

 SAVING SATURATED THICKNESS AND FLOW TERMS ON UNIT   54 FOR MT3DMS
 BY THE LINK-MT3DMS PACKAGE V7 AT TIME STEP   11, STRESS PERIOD    1

 
 SOLVING FOR HEAD 

 NO OUTPUT CONTROL FOR STRESS PERIOD    1   TIME STEP   12

 SAVING SATURATED THICKNESS AND FLOW TERMS ON UNIT   54 FOR MT3DMS
 BY THE LINK-MT3DMS PACKAGE V7 AT TIME STEP   12, STRESS PERIOD    1

 
 SOLVING FOR HEAD 

 NO OUTPUT CONTROL FOR STRESS PERIOD    1   TIME STEP   13

 SAVING SATURATED THICKNESS AND FLOW TERMS ON UNIT   54 FOR MT3DMS
 BY THE LINK-MT3DMS PACKAGE V7 AT TIME STEP   13, STRESS PERIOD    1

 
 SOLVING FOR HEAD 

 NO OUTPUT CONTROL FOR STRESS PERIOD    1   TIME STEP   14

 SAVING SATURATED THICKNESS AND FLOW TERMS ON UNIT   54 FOR MT3DMS
 BY THE LINK-MT3DMS PACKAGE V7 AT TIME STEP   14, STRESS PERIOD    1

 
 SOLVING FOR HEAD 

 NO OUTPUT CONTROL FOR STRESS PERIOD    1   TIME STEP   15

 SAVING SATURATED THICKNESS AND FLOW TERMS ON UNIT   54 FOR MT3DMS
 BY THE LINK-MT3DMS PACKAGE V7 AT TIME STEP   15, STRESS PERIOD    1

 
 SOLVING FOR HEAD 

 NO OUTPUT CONTROL FOR STRESS PERIOD    1   TIME STEP   16

 SAVING SATURATED THICKNESS AND FLOW TERMS ON UNIT   54 FOR MT3DMS
 BY THE LINK-MT3DMS PACKAGE V7 AT TIME STEP   16, STRESS PERIOD    1

 
 SOLVING FOR HEAD 

 NO OUTPUT CONTROL FOR STRESS PERIOD    1   TIME STEP   17

 SAVING SATURATED THICKNESS AND FLOW TERMS ON UNIT   54 FOR MT3DMS
 BY THE LINK-MT3DMS PACKAGE V7 AT TIME STEP   17, STRESS PERIOD    1

 
 SOLVING FOR HEAD 

 NO OUTPUT CONTROL FOR STRESS PERIOD    1   TIME STEP   18

 SAVING SATURATED THICKNESS AND FLOW TERMS ON UNIT   54 FOR MT3DMS
 BY THE LINK-MT3DMS PACKAGE V7 AT TIME STEP   18, STRESS PERIOD    1

 
 SOLVING FOR HEAD 

 NO OUTPUT CONTROL FOR STRESS PERIOD    1   TIME STEP   19

 SAVING SATURATED THICKNESS AND FLOW TERMS ON UNIT   54 FOR MT3DMS
 BY THE LINK-MT3DMS PACKAGE V7 AT TIME STEP   19, STRESS PERIOD    1

 
 SOLVING FOR HEAD 

 NO OUTPUT CONTROL FOR STRESS PERIOD    1   TIME STEP   20

 SAVING SATURATED THICKNESS AND FLOW TERMS ON UNIT   54 FOR MT3DMS
 BY THE LINK-MT3DMS PACKAGE V7 AT TIME STEP   20, STRESS PERIOD    1

 
 SOLVING FOR HEAD 

 NO OUTPUT CONTROL FOR STRESS PERIOD    1   TIME STEP   21

 SAVING SATURATED THICKNESS AND FLOW TERMS ON UNIT   54 FOR MT3DMS
 BY THE LINK-MT3DMS PACKAGE V7 AT TIME STEP   21, STRESS PERIOD    1

 
 SOLVING FOR HEAD 

 NO OUTPUT CONTROL FOR STRESS PERIOD    1   TIME STEP   22

 SAVING SATURATED THICKNESS AND FLOW TERMS ON UNIT   54 FOR MT3DMS
 BY THE LINK-MT3DMS PACKAGE V7 AT TIME STEP   22, STRESS PERIOD    1

 
 SOLVING FOR HEAD 

 NO OUTPUT CONTROL FOR STRESS PERIOD    1   TIME STEP   23

 SAVING SATURATED THICKNESS AND FLOW TERMS ON UNIT   54 FOR MT3DMS
 BY THE LINK-MT3DMS PACKAGE V7 AT TIME STEP   23, STRESS PERIOD    1

 
 SOLVING FOR HEAD 

 NO OUTPUT CONTROL FOR STRESS PERIOD    1   TIME STEP   24

 SAVING SATURATED THICKNESS AND FLOW TERMS ON UNIT   54 FOR MT3DMS
 BY THE LINK-MT3DMS PACKAGE V7 AT TIME STEP   24, STRESS PERIOD    1

 
 SOLVING FOR HEAD 

 NO OUTPUT CONTROL FOR STRESS PERIOD    1   TIME STEP   25

 SAVING SATURATED THICKNESS AND FLOW TERMS ON UNIT   54 FOR MT3DMS
 BY THE LINK-MT3DMS PACKAGE V7 AT TIME STEP   25, STRESS PERIOD    1

 
 SOLVING FOR HEAD 

 NO OUTPUT CONTROL FOR STRESS PERIOD    1   TIME STEP   26

 SAVING SATURATED THICKNESS AND FLOW TERMS ON UNIT   54 FOR MT3DMS
 BY THE LINK-MT3DMS PACKAGE V7 AT TIME STEP   26, STRESS PERIOD    1

 
 SOLVING FOR HEAD 

 NO OUTPUT CONTROL FOR STRESS PERIOD    1   TIME STEP   27

 SAVING SATURATED THICKNESS AND FLOW TERMS ON UNIT   54 FOR MT3DMS
 BY THE LINK-MT3DMS PACKAGE V7 AT TIME STEP   27, STRESS PERIOD    1

 
 SOLVING FOR HEAD 

 NO OUTPUT CONTROL FOR STRESS PERIOD    1   TIME STEP   28

 SAVING SATURATED THICKNESS AND FLOW TERMS ON UNIT   54 FOR MT3DMS
 BY THE LINK-MT3DMS PACKAGE V7 AT TIME STEP   28, STRESS PERIOD    1

 
 SOLVING FOR HEAD 

 NO OUTPUT CONTROL FOR STRESS PERIOD    1   TIME STEP   29

 SAVING SATURATED THICKNESS AND FLOW TERMS ON UNIT   54 FOR MT3DMS
 BY THE LINK-MT3DMS PACKAGE V7 AT TIME STEP   29, STRESS PERIOD    1

 
 SOLVING FOR HEAD 

 NO OUTPUT CONTROL FOR STRESS PERIOD    1   TIME STEP   30

 SAVING SATURATED THICKNESS AND FLOW TERMS ON UNIT   54 FOR MT3DMS
 BY THE LINK-MT3DMS PACKAGE V7 AT TIME STEP   30, STRESS PERIOD    1

1
  VOLUMETRIC BUDGET FOR ENTIRE MODEL AT END OF TIME STEP   30, STRESS PERIOD   1
  ------------------------------------------------------------------------------

     CUMULATIVE VOLUMES      L**3       RATES FOR THIS TIME STEP      L**3/T
     ------------------                 ------------------------

           IN:                                      IN:
           ---                                      ---
             STORAGE =           0.0000               STORAGE =           0.0000
       CONSTANT HEAD =     6260234.5000         CONSTANT HEAD =       17151.3262
               WELLS =       31535.9902                 WELLS =          86.4000

            TOTAL IN =     6291770.5000              TOTAL IN =       17237.7266

          OUT:                                     OUT:
          ----                                     ----
             STORAGE =           0.0000               STORAGE =           0.0000
       CONSTANT HEAD =     5695725.0000         CONSTANT HEAD =       15604.7256
               WELLS =      596045.0000                 WELLS =        1633.0000

           TOTAL OUT =     6291770.0000             TOTAL OUT =       17237.7266

            IN - OUT =           0.5000              IN - OUT =           0.0000

 PERCENT DISCREPANCY =           0.00     PERCENT DISCREPANCY =           0.00






         TIME SUMMARY AT END OF TIME STEP   30 IN STRESS PERIOD    1
                    SECONDS     MINUTES      HOURS       DAYS        YEARS
                    -----------------------------------------------------------
   TIME STEP LENGTH 1.05120E+06  17520.      292.00      12.167     3.33105E-02
 STRESS PERIOD TIME 3.15360E+07 5.25600E+05  8760.0      365.00     0.99932    
         TOTAL TIME 3.15360E+07 5.25600E+05  8760.0      365.00     0.99932    
1

 Run end date and time (yyyy/mm/dd hh:mm:ss): 2024/05/30 21:11:56
 Elapsed run time:  0.047 Seconds

